geometry optimzed in LAMMPS
_audit_creation_date              2020-11-30 
_audit_creation_method            'lammps2cif' 
_symmetry_space_group_name_H-M    'P1' 
_symmetry_Int_Tables_number       1 
_symmetry_cell_setting            triclinic 
loop_ 
_symmetry_equiv_pos_as_xyz 
  x,y,z 
_cell_length_a                    26.72925208 
_cell_length_b                    26.98523525491466 
_cell_length_c                    26.736378187014704 
_cell_angle_alpha                 89.8819687465415 
_cell_angle_beta                  89.88493736961601 
_cell_angle_gamma                 90.4433345141659 
loop_ 
_atom_site_label 
_atom_site_type_symbol 
_atom_site_fract_x 
_atom_site_fract_y 
_atom_site_fract_z 
_atom_site_charge 
O1          O  0.19771975  0.43835843  0.05015752    -0.80000
O2          O  0.20009209  0.55124866  0.94957805    -0.80000
O3          O  0.25610901  0.53061372  0.11127364    -0.80000
O4          O  0.26052113  0.45811323  0.89060087    -0.80000
O5          O  0.19555457  0.54052061  0.05605622    -0.80100
O6          O  0.19782177  0.44831131  0.94363098    -0.80000
O7          O  0.26494031  0.55305394  0.89900851    -0.80000
O8          O  0.26153531  0.43584773  0.10116303    -0.80000
C9          C  0.21491241  0.43163913  0.09381304     1.09700
C10         C  0.21843158  0.55847751  0.90635021     1.09600
C11         C  0.21037050  0.53918379  0.10124979     1.09700
C12         C  0.21434067  0.44919999  0.89901737     1.09600
O13         O  0.29100122  0.39456765  0.94268102    -0.80000
O14         O  0.28768181  0.59497882  0.06024908    -0.80100
O15         O  0.35560474  0.44025145  0.04930751    -0.80000
O16         O  0.35777898  0.55215037  0.95351829    -0.80000
O17         O  0.29481839  0.60368136  0.96451248    -0.80100
O18         O  0.29399655  0.38634455  0.03753616    -0.80000
O19         O  0.35561914  0.44542139  0.94376684    -0.80000
O20         O  0.35287395  0.54610492  0.06166204    -0.80000
Co21       Co  0.24532051  0.42376674  0.99443269     1.51500
Co22       Co  0.24497191  0.56566833  0.00670829     1.51700
Co23       Co  0.30652703  0.48908369  0.07377974     1.51600
Co24       Co  0.30942241  0.50134658  0.92905171     1.51500
O25         O  0.27699250  0.49508141  0.00095322    -1.41900
C26         C  0.33704534  0.40301380  0.93429407     1.09600
C27         C  0.33379687  0.58853061  0.06839338     1.09700
C28         C  0.33963589  0.39574074  0.04773595     1.09600
C29         C  0.34082828  0.59611011  0.95478148     1.09600
O30         O  0.74813192  0.45031087  0.09853836    -0.80000
O31         O  0.73862602  0.56003822  0.89397904    -0.80000
O32         O  0.80541894  0.45856444  0.93788686    -0.80000
O33         O  0.80858091  0.55539429  0.04988261    -0.80000
O34         O  0.74183988  0.46539721  0.88603806    -0.80100
O35         O  0.74763033  0.54565594  0.10463756    -0.80000
O36         O  0.80389962  0.56048221  0.94368261    -0.80000
O37         O  0.80903523  0.45040615  0.04318413    -0.80000
C38         C  0.79408482  0.44473660  0.08780350     1.09700
C39         C  0.78519974  0.56653682  0.90068001     1.09600
C40         C  0.78825608  0.45850750  0.89370345     1.09700
C41         C  0.79303289  0.55607190  0.09480238     1.09600
O42         O  0.65136915  0.55391840  0.05637886    -0.80000
O43         O  0.64831007  0.45226928  0.94256432    -0.80100
O44         O  0.71437428  0.39593162  0.03746183    -0.80000
O45         O  0.70780419  0.61207687  0.95634372    -0.80000
O46         O  0.64630197  0.55751196  0.95132730    -0.80100
O47         O  0.65181809  0.44752401  0.04893933    -0.80000
O48         O  0.71444841  0.60670554  0.05135456    -0.80000
O49         O  0.71294353  0.40267894  0.94109187    -0.80000
Co50       Co  0.69967915  0.49971036  0.06996999     1.51500
Co51       Co  0.69415772  0.50821930  0.92550611     1.51700
Co52       Co  0.75994763  0.43376966  0.99050179     1.51600
Co53       Co  0.75851692  0.57667293  0.99970728     1.51500
O54         O  0.72792487  0.50453895  0.99658369    -1.41900
C55         C  0.66883537  0.59770384  0.06067106     1.09600
C56         C  0.66627589  0.40935470  0.93630496     1.09700
C57         C  0.66901023  0.40377215  0.04947175     1.09600
C58         C  0.66210314  0.60173710  0.94719087     1.09600
O59         O  0.43846909  0.04945350  0.34424293    -0.80000
O60         O  0.55509411  0.94856856  0.35158134    -0.80000
O61         O  0.39677770  0.94746106  0.28356403    -0.80000
O62         O  0.60210784  0.05260248  0.29535191    -0.80000
O63         O  0.44824163  0.94597677  0.34797644    -0.80100
O64         O  0.54272937  0.05372056  0.35260252    -0.80000
O65         O  0.60916099  0.95775859  0.29023458    -0.80000
O66         O  0.38960653  0.04251951  0.27888607    -0.80000
C67         C  0.39530625  0.05176281  0.32511422     1.09700
C68         C  0.59964884  0.94606698  0.33516884     1.09600
C69         C  0.40452162  0.94161445  0.33015417     1.09700
C70         C  0.58793158  0.06022598  0.34028300     1.09600
O71         O  0.54491550  0.10804537  0.25804041    -0.80000
O72         O  0.45789442  0.89172854  0.25458051    -0.80100
O73         O  0.44945797  0.04774128  0.18743602    -0.80000
O74         O  0.56100433  0.95071434  0.19423029    -0.80000
O75         O  0.55393547  0.89777172  0.25680401    -0.80100
O76         O  0.44865700  0.10160883  0.24908097    -0.80000
O77         O  0.55524649  0.05646116  0.19567402    -0.80000
O78         O  0.45404658  0.94299568  0.19077482    -0.80000
Co79       Co  0.49411355  0.07130497  0.30062603     1.51500
Co80       Co  0.50323265  0.92823073  0.30232047     1.51700
Co81       Co  0.42954978  0.99550278  0.23583892     1.51600
Co82       Co  0.57469145  0.00428107  0.24375856     1.51500
O83         O  0.50048104  0.99971096  0.27045875    -1.41900
C84         C  0.55624317  0.10026458  0.21255874     1.09600
C85         C  0.45157639  0.89933776  0.20813213     1.09700
C86         C  0.44532755  0.09198525  0.20266139     1.09600
C87         C  0.56394219  0.90672036  0.21121401     1.09600
O88         O  0.38474799  0.03450019  0.71367906    -0.80000
O89         O  0.61107453  0.96747107  0.72441086    -0.80000
O90         O  0.54498932  0.06180414  0.65850165    -0.80000
O91         O  0.45819179  0.94716153  0.64752645    -0.80000
O92         O  0.59598714  0.06146917  0.72328917    -0.80100
O93         O  0.39975991  0.94134846  0.70589512    -0.80000
O94         O  0.56416903  0.95954965  0.65754106    -0.80000
O95         O  0.43953559  0.04919829  0.65398358    -0.80000
C96         C  0.39453231  0.04783294  0.66910369     1.09700
C97         C  0.60682643  0.95730868  0.67820960     1.09600
C98         C  0.58835034  0.06774628  0.67674170     1.09700
C99         C  0.41384357  0.93603804  0.66063638     1.09600
O100        O  0.44712914  0.93556706  0.80436120    -0.80000
O101        O  0.53744387  0.05778523  0.81524077    -0.80100
O102        O  0.43442298  0.09676692  0.75064754    -0.80000
O103        O  0.55655611  0.90321204  0.74933785    -0.80000
O104        O  0.54995617  0.95284150  0.81422695    -0.80100
O105        O  0.43370231  0.04154679  0.81139616    -0.80000
O106        O  0.46173182  0.88916548  0.73861242    -0.80000
O107        O  0.53000747  0.11140753  0.75375656    -0.80000
Co108      Co  0.42327708  0.98912523  0.75920374     1.51500
Co109      Co  0.56660482  0.00910262  0.76859749     1.51700
Co110      Co  0.48828319  0.07296858  0.70430071     1.51600
Co111      Co  0.50913023  0.93178758  0.69875803     1.51500
O112        O  0.49679411  0.00078124  0.73274656    -1.41900
C113        C  0.45171185  0.89292568  0.78476370     1.09600
C114        C  0.53743026  0.10221753  0.79974207     1.09700
C115        C  0.42685528  0.08576424  0.79627933     1.09600
C116        C  0.55883479  0.91024672  0.79629537     1.09600
O117        O  0.05060494  0.34560507  0.44588354    -0.80000
O118        O  0.94233332  0.35037469  0.54571041    -0.80000
O119        O  0.95225060  0.28298565  0.38814033    -0.80000
O120        O  0.04012074  0.28767617  0.60605528    -0.80000
O121        O  0.94627660  0.34715940  0.43852790    -0.80100
O122        O  0.04916196  0.34817205  0.55152166    -0.80000
O123        O  0.94393836  0.28926366  0.60038601    -0.80000
O124        O  0.04794399  0.28326125  0.39302631    -0.80000
C125        C  0.05718169  0.32874937  0.40233744     1.09700
C126        C  0.93709785  0.33476344  0.59018336     1.09600
C127        C  0.94422500  0.32878284  0.39476459     1.09700
C128        C  0.05154773  0.33247366  0.59620090     1.09600
O129        O  0.09982435  0.25380297  0.55036946    -0.80000
O130        O  0.89140998  0.25531538  0.44499874    -0.80100
O131        O  0.04764181  0.18968742  0.44930863    -0.80000
O132        O  0.93960593  0.19432390  0.54990582    -0.80000
O133        O  0.88729491  0.25650558  0.54130848    -0.80100
O134        O  0.10268821  0.25051139  0.45390820    -0.80000
O135        O  0.04571899  0.19233713  0.55481265    -0.80000
O136        O  0.94123144  0.19110719  0.44514994    -0.80000
Co137      Co  0.06853329  0.29933895  0.49990872     1.51500
Co138      Co  0.92397073  0.30199179  0.49320298     1.51700
Co139      Co  0.99711462  0.23715461  0.42591704     1.51600
Co140      Co  0.99255751  0.24105968  0.57073523     1.51500
O141        O  0.99551108  0.26993855  0.49751631    -1.41900
C142        C  0.09036153  0.20830468  0.55832677     1.09600
C143        C  0.89753256  0.20896224  0.44133946     1.09700
C144        C  0.09252944  0.20484375  0.44710227     1.09600
C145        C  0.89541165  0.21098667  0.55071431     1.09600
O146        O  0.05672531  0.71613353  0.39691195    -0.80000
O147        O  0.95210460  0.71009728  0.60506916    -0.80000
O148        O  0.05579747  0.64863703  0.55513001    -0.80000
O149        O  0.95243064  0.65219421  0.44461254    -0.80000
O150        O  0.04758070  0.70938999  0.60942850    -0.80100
O151        O  0.96025657  0.71515481  0.39271260    -0.80000
O152        O  0.95051483  0.65010663  0.54968187    -0.80000
O153        O  0.05918208  0.65257421  0.44843587    -0.80000
C154        C  0.06477007  0.67033867  0.40486608     1.09700
C155        C  0.94276995  0.66530314  0.59353530     1.09600
C156        C  0.05782246  0.66453579  0.59980707     1.09700
C157        C  0.95026266  0.66973961  0.40065307     1.09600
O158        O  0.95162252  0.80735026  0.44848233    -0.80000
O159        O  0.05808068  0.80494122  0.55864583    -0.80100
O160        O  0.11164459  0.74747809  0.45893698    -0.80000
O161        O  0.89664662  0.74492867  0.54620496    -0.80000
O162        O  0.95133002  0.80580808  0.55482196    -0.80100
O163        O  0.05706285  0.80809852  0.45406158    -0.80000
O164        O  0.89906467  0.74458063  0.44968936    -0.80000
O165        O  0.10895062  0.74164110  0.55518346    -0.80000
Co166      Co  0.00630605  0.76116522  0.42994767     1.51500
Co167      Co  0.00252439  0.75749024  0.57481856     1.51700
Co168      Co  0.07663780  0.69789649  0.50382191     1.51600
Co169      Co  0.93166235  0.69823272  0.49805577     1.51500
O170        O  0.00425205  0.72861798  0.50158978    -1.41900
C171        C  0.90735144  0.79054016  0.44435384     1.09600
C172        C  0.10176586  0.78729896  0.56320793     1.09700
C173        C  0.10175349  0.79314483  0.45281268     1.09600
C174        C  0.90665867  0.78987150  0.55736370     1.09600
C175        C  0.81078472  0.87814901  0.61758188     0.16100
C176        C  0.78456470  0.91256269  0.64688581    -0.33000
C177        C  0.73220789  0.91453413  0.64128093     0.20500
C178        C  0.70733854  0.88474927  0.60712014     0.02700
C179        C  0.73322172  0.84902185  0.57960531    -0.22700
C180        C  0.78514158  0.84602079  0.58629729     0.11800
S181        S  0.87446920  0.87008064  0.61715413    -0.06300
C182        C  0.86583516  0.82174876  0.57576571    -0.09800
C183        C  0.81616265  0.81249830  0.56417564    -0.26400
S184        S  0.64412834  0.89388915  0.60449873    -0.03600
C185        C  0.65055210  0.93685132  0.65157651    -0.17100
C186        C  0.69961672  0.94344572  0.66788830    -0.15100
H187        H  0.80399134  0.93656407  0.67294226     0.20300
H188        H  0.71369368  0.82439525  0.55421755     0.16400
H189        H  0.80310524  0.78203782  0.54150826     0.18900
H190        H  0.71078013  0.96661125  0.69893655     0.12200
C191        C  0.31283967  0.85229713  0.61165771     0.16100
C192        C  0.27714490  0.81422424  0.61115697    -0.33000
C193        C  0.22849601  0.82619253  0.59639368     0.20500
C194        C  0.21556982  0.87370745  0.58190132     0.02700
C195        C  0.25186101  0.91174817  0.58110275    -0.22700
C196        C  0.30069279  0.89986741  0.59662865     0.11800
S197        S  0.37131454  0.84671103  0.63619356    -0.06300
C198        C  0.37973258  0.90933656  0.62712754    -0.09800
C199        C  0.33966918  0.93245814  0.60417758    -0.26400
S200        S  0.15360056  0.87973482  0.56582212    -0.03600
C201        C  0.14599689  0.81719091  0.57743379    -0.17100
C202        C  0.18900971  0.79404313  0.59424008    -0.15100
H203        H  0.28642929  0.77717202  0.62351684     0.20300
H204        H  0.24214923  0.94919492  0.57046515     0.16400
H205        H  0.33758031  0.97171886  0.59734673     0.18900
H206        H  0.19176607  0.75486803  0.60269477     0.12200
C207        C  0.79377690  0.12318732  0.60090511     0.16100
C208        C  0.76525854  0.09065653  0.63039519    -0.33000
C209        C  0.71303604  0.09404708  0.62719908     0.20500
C210        C  0.68991064  0.12612168  0.59409790     0.02700
C211        C  0.71844922  0.15886426  0.56479397    -0.22700
C212        C  0.77063824  0.15750774  0.57019945     0.11800
S213        S  0.85759517  0.12825483  0.60263929    -0.06300
C214        C  0.85269127  0.17885899  0.56376960    -0.09800
C215        C  0.80419364  0.19014310  0.54974649    -0.31200
S216        S  0.62589746  0.12525211  0.59719948    -0.03600
C217        C  0.63078668  0.08328905  0.64542802    -0.17100
C218        C  0.67930893  0.07030403  0.65732234    -0.15100
H219        H  0.78290883  0.06544771  0.65640377     0.20300
H220        H  0.70073561  0.18578803  0.54066241     0.16400
H221        H  0.79385863  0.22169973  0.52707238     0.18900
H222        H  0.68944182  0.04688379  0.68841506     0.12200
C223        C  0.29517278  0.12196691  0.59957108     0.16100
C224        C  0.26731813  0.16120427  0.58003723    -0.33000
C225        C  0.21498105  0.15684804  0.58125105     0.20500
C226        C  0.19105757  0.11440506  0.59844756     0.02700
C227        C  0.21893958  0.07538508  0.61880089    -0.22700
C228        C  0.27132888  0.08087114  0.62004644     0.11800
S229        S  0.35892367  0.12199962  0.60562608    -0.06300
C230        C  0.35332412  0.06734495  0.63850901    -0.09800
C231        C  0.30443049  0.05006276  0.64341581    -0.26400
S232        S  0.12691594  0.11650884  0.59482933    -0.03600
C233        C  0.13269867  0.17596737  0.57173746    -0.17100
C234        C  0.18181998  0.19257331  0.56760135    -0.15100
H235        H  0.28557017  0.19443559  0.56606290     0.20300
H236        H  0.20059848  0.04295926  0.63446881     0.16400
H237        H  0.29351242  0.01765132  0.66490425     0.18900
H238        H  0.19287035  0.22924076  0.55503975     0.12200
C239        C  0.70065917  0.87436399  0.40677994     0.16100
C240        C  0.72921396  0.83790427  0.43066135    -0.33000
C241        C  0.78160769  0.84104223  0.42581772     0.20500
C242        C  0.80485293  0.87994282  0.40086877     0.02700
C243        C  0.77633125  0.91535487  0.37575615    -0.22700
C244        C  0.72406447  0.91068711  0.37831783     0.11800
S245        S  0.63637539  0.87669773  0.40552739    -0.06300
C246        C  0.64154171  0.92578661  0.36443196    -0.09800
C247        C  0.69057282  0.93853347  0.35253448    -0.26400
S248        S  0.86897273  0.87771375  0.40079817    -0.03600
C249        C  0.86433278  0.82236466  0.43252813    -0.17100
C250        C  0.81549476  0.80710294  0.44223644    -0.15100
H251        H  0.71145675  0.80773573  0.45091829     0.20300
H252        H  0.79405313  0.94447783  0.35396086     0.16400
H253        H  0.70123218  0.96683704  0.32565212     0.18900
H254        H  0.80520465  0.77198730  0.45905196     0.12200
C255        C  0.30270641  0.88890297  0.41618613     0.16100
C256        C  0.27461653  0.85790064  0.44776385    -0.33000
C257        C  0.22290433  0.85482837  0.43919708     0.20500
C258        C  0.19953473  0.88409337  0.40364183     0.02700
C259        C  0.22755805  0.91489111  0.37210975    -0.22700
C260        C  0.27953801  0.91507915  0.37817978     0.11800
S261        S  0.36666197  0.89311545  0.41558383    -0.06300
C262        C  0.36174881  0.92785200  0.36179730    -0.09800
C263        C  0.31320604  0.93622038  0.34631915    -0.26400
S264        S  0.13670613  0.87406994  0.39808464    -0.03600
C265        C  0.14263868  0.82768066  0.44165421    -0.17100
C266        C  0.19050232  0.82146227  0.46025859    -0.15100
H267        H  0.29256134  0.83495853  0.47564473     0.20300
H268        H  0.20995061  0.93546616  0.34218889     0.16400
H269        H  0.30309329  0.95403107  0.31158556     0.18900
H270        H  0.20131159  0.79284403  0.48642672     0.12200
C271        C  0.78508431  0.11958783  0.42576212     0.16100
C272        C  0.75155846  0.07986822  0.41902660    -0.33000
C273        C  0.70155487  0.09135991  0.40760361     0.20500
C274        C  0.68512295  0.13982375  0.40489529     0.02700
C275        C  0.71801336  0.17924095  0.41364904    -0.22700
C276        C  0.76821415  0.16789911  0.42277049     0.11800
S277        S  0.84863844  0.11481127  0.43456054    -0.06300
C278        C  0.85198705  0.17865258  0.43338458    -0.09800
C279        C  0.80611592  0.20149763  0.42679268    -0.26400
S280        S  0.62565233  0.14622917  0.38259552    -0.03600
C281        C  0.62331123  0.08301296  0.37540822    -0.17100
C282        C  0.66551547  0.05879324  0.39200278    -0.15100
H283        H  0.76442091  0.04190246  0.41951103     0.20300
H284        H  0.70578117  0.21725217  0.41008728     0.16400
H285        H  0.80057390  0.24119737  0.42513275     0.18900
H286        H  0.67091582  0.01973364  0.38975945     0.12200
C287        C  0.18991816  0.11286088  0.39801150     0.16100
C288        C  0.21720272  0.07987288  0.36826312    -0.33000
C289        C  0.26964610  0.08145886  0.37191447     0.20500
C290        C  0.29379545  0.11182133  0.40608685     0.02700
C291        C  0.26660035  0.14533848  0.43516704    -0.22700
C292        C  0.21449643  0.14617348  0.42893205     0.11800
S293        S  0.12632226  0.12029154  0.39603790    -0.06300
C294        C  0.13355624  0.17081895  0.43469874    -0.09800
C295        C  0.18260363  0.18038103  0.44852646    -0.26400
S296        S  0.35767771  0.10835557  0.40443052    -0.03600
C297        C  0.35193949  0.06803277  0.35491386    -0.17100
C298        C  0.30284127  0.05753248  0.34150206    -0.15100
H299        H  0.19857490  0.05577846  0.34171574     0.20300
H300        H  0.28541261  0.17130731  0.45972772     0.16400
H301        H  0.19471899  0.21225411  0.46979296     0.18900
H302        H  0.29187054  0.03577984  0.30941655     0.12200
C303        C  0.60401387  0.70049347  0.13275963     0.16100
C304        C  0.58516658  0.73014823  0.17111719    -0.33000
C305        C  0.58899681  0.78171614  0.16522570     0.20500
C306        C  0.60852069  0.80339299  0.12240316     0.02700
C307        C  0.62920782  0.77370612  0.08480039    -0.22700
C308        C  0.62719773  0.72200566  0.09163660     0.11800
S309        S  0.60525675  0.63698070  0.13365159    -0.06300
C310        C  0.63936691  0.63953204  0.07912970    -0.09800
C311        C  0.64882127  0.68726576  0.06178010    -0.26400
S312        S  0.60582147  0.86708305  0.12184098    -0.03600
C313        C  0.57951923  0.86398182  0.18065733    -0.17100
C314        C  0.57476273  0.81615091  0.19932374    -0.15100
H315        H  0.56894863  0.71380591  0.20449893     0.20300
H316        H  0.64665493  0.79007064  0.05205373     0.16400
H317        H  0.67225450  0.69613029  0.02982786     0.18900
H318        H  0.56099594  0.80680508  0.23629808     0.12200
C319        C  0.59775677  0.30356120  0.12272513     0.16100
C320        C  0.57555329  0.27603304  0.16145371    -0.33000
C321        C  0.57975881  0.22421599  0.15970704     0.20500
C322        C  0.60274689  0.20045771  0.12006318     0.02700
C323        C  0.62617820  0.22803478  0.08201731    -0.22700
C324        C  0.62395953  0.27998421  0.08502152     0.11800
S325        S  0.60011958  0.36696921  0.11974619    -0.06300
C326        C  0.63920432  0.36167556  0.06880569    -0.09800
C327        C  0.64870109  0.31309395  0.05488976    -0.26400
S328        S  0.60141990  0.13702184  0.12412438    -0.03600
C329        C  0.57130180  0.14279268  0.18085609    -0.17100
C330        C  0.56349656  0.19147735  0.19540113    -0.15100
H331        H  0.55700618  0.29423833  0.19233123     0.20300
H332        H  0.64627728  0.20989311  0.05207949     0.16400
H333        H  0.67519218  0.30229893  0.02654823     0.18900
H334        H  0.54664595  0.20247670  0.23046185     0.12200
C335        C  0.61761358  0.70564621  0.86419799     0.16100
C336        C  0.61653669  0.74100636  0.82618936    -0.33000
C337        C  0.59690272  0.78742136  0.83760261     0.20500
C338        C  0.57815860  0.79863332  0.88453518     0.02700
C339        C  0.57824893  0.76254518  0.92272614    -0.22700
C340        C  0.59872687  0.71581086  0.91136154     0.11800
S341        S  0.64577982  0.64965132  0.85859734    -0.06300
C342        C  0.63271022  0.63914489  0.92060818    -0.09800
C343        C  0.60637346  0.67694955  0.94379547    -0.26400
S344        S  0.55630668  0.85831910  0.88942241    -0.03600
C345        C  0.57223156  0.86707148  0.82733952    -0.17100
C346        C  0.59383272  0.82613186  0.80518585    -0.15100
H347        H  0.63176030  0.73313634  0.78950065     0.20300
H348        H  0.56424592  0.77083619  0.95978246     0.16400
H349        H  0.59542201  0.67711254  0.98258567     0.18900
H350        H  0.60561395  0.82426114  0.76643127     0.12200
C351        C  0.59469796  0.20321912  0.88194515     0.16100
C352        C  0.62888933  0.23254054  0.90836370    -0.33000
C353        C  0.62128448  0.28385403  0.90873342     0.20500
C354        C  0.58011432  0.30533324  0.88628913     0.02700
C355        C  0.54598538  0.27594294  0.85925605    -0.22700
C356        C  0.55514594  0.22466427  0.85659205     0.11800
S357        S  0.60024051  0.14073422  0.87339868    -0.06300
C358        C  0.55041082  0.14367781  0.83303016    -0.09800
C359        C  0.53018745  0.19069918  0.82760923    -0.26400
S360        S  0.57873002  0.36885178  0.89140347    -0.03600
C361        C  0.63534546  0.36603513  0.92210736    -0.17100
C362        C  0.65338204  0.31835212  0.92789937    -0.15100
H363        H  0.66122814  0.21628115  0.92617780     0.20300
H364        H  0.51491562  0.29247149  0.83955081     0.16400
H365        H  0.49991029  0.19976153  0.80241534     0.18900
H366        H  0.68946124  0.30937565  0.94367304     0.12200
C367        C  0.85560993  0.61866172  0.69328484     0.16100
C368        C  0.81605486  0.61665077  0.72727220    -0.33000
C369        C  0.82672159  0.60089897  0.77585280     0.20500
C370        C  0.87438630  0.58700533  0.79031872     0.02700
C371        C  0.91393018  0.58786039  0.75579467    -0.22700
C372        C  0.90331574  0.60422444  0.70707574     0.11800
S373        S  0.85150947  0.64359869  0.63497855    -0.06300
C374        C  0.91481329  0.63504448  0.62914246    -0.09800
C375        C  0.93727348  0.61249072  0.66964793    -0.26400
S376        S  0.87884465  0.56961882  0.85181982    -0.03600
C377        C  0.81558512  0.58026074  0.85707986    -0.17100
C378        C  0.79311235  0.59731106  0.81386036    -0.15100
H379        H  0.77886231  0.62842119  0.71678676     0.20300
H380        H  0.95146934  0.57767261  0.76672688     0.16400
H381        H  0.97670062  0.60555533  0.67287128     0.18900
H382        H  0.75364890  0.60535685  0.81002725     0.12200
C383        C  0.87835111  0.59960497  0.29964502     0.16100
C384        C  0.84002790  0.57797426  0.27148068    -0.33000
C385        C  0.84363761  0.58132081  0.21924721     0.20500
C386        C  0.88444620  0.60293647  0.19557355     0.02700
C387        C  0.92178192  0.62645828  0.22378262    -0.22700
C388        C  0.91699304  0.62503385  0.27614743     0.11800
S389        S  0.87979566  0.60208881  0.36361269    -0.06300
C390        C  0.93143296  0.64020107  0.35851624    -0.09800
C391        C  0.94622186  0.64976554  0.30969328    -0.26400
S392        S  0.88247377  0.59993618  0.13144350    -0.03600
C393        C  0.82508358  0.57097473  0.13704492    -0.17100
C394        C  0.80873871  0.56525633  0.18600340    -0.15100
H395        H  0.80822579  0.56025803  0.28944080     0.20300
H396        H  0.95262408  0.64578540  0.20582416     0.16400
H397        H  0.97413052  0.67664897  0.29891554     0.18900
H398        H  0.77266638  0.55023969  0.19695994     0.12200
C399        C  0.87609699  0.41015940  0.79284037     0.16100
C400        C  0.90741283  0.37960338  0.76509571    -0.33000
C401        C  0.90633157  0.38428662  0.71306791     0.20500
C402        C  0.87778359  0.41970754  0.68909264     0.02700
C403        C  0.84574985  0.45027953  0.71699473    -0.22700
C404        C  0.84466417  0.44352659  0.76931163     0.11800
S405        S  0.86905846  0.40622371  0.85610054    -0.06300
C406        C  0.82102960  0.44769616  0.85100740    -0.09800
C407        C  0.81220958  0.46472331  0.80268660    -0.26400
S408        S  0.88208250  0.41760661  0.62490307    -0.03600
C409        C  0.92077171  0.36705861  0.63134276    -0.17100
C410        C  0.92937198  0.35343794  0.68039259    -0.15100
H411        H  0.93002469  0.35168664  0.78318800     0.20300
H412        H  0.82123036  0.47640656  0.69871170     0.16400
H413        H  0.78261002  0.48991960  0.79241743     0.18900
H414        H  0.94872754  0.32027227  0.69172802     0.12200
C415        C  0.88471960  0.39360231  0.18641052     0.16100
C416        C  0.91633239  0.36373383  0.21526055    -0.33000
C417        C  0.91553723  0.37036546  0.26746551     0.20500
C418        C  0.88719327  0.40699667  0.28983102     0.02700
C419        C  0.85507911  0.43611539  0.26112853    -0.22700
C420        C  0.85349849  0.42732586  0.20948612     0.11800
S421        S  0.87635252  0.38924067  0.12285149    -0.06300
C422        C  0.82847612  0.43130079  0.12847317    -0.09800
C423        C  0.82008761  0.44712999  0.17686031    -0.26400
S424        S  0.89114153  0.40881102  0.35376429    -0.03600
C425        C  0.92912409  0.35780860  0.35064665    -0.17100
C426        C  0.93865408  0.34135131  0.30225623    -0.15100
H427        H  0.93878006  0.33515589  0.19810548     0.20300
H428        H  0.83063167  0.46285792  0.27855871     0.16400
H429        H  0.78894736  0.46963597  0.18814681     0.18900
H430        H  0.96083377  0.30916610  0.29311900     0.12200
C431        C  0.39261572  0.72482191  0.92344854     0.16100
C432        C  0.39565956  0.77623056  0.91705523    -0.33000
C433        C  0.42119886  0.79413141  0.87508803     0.20500
C434        C  0.44373923  0.76203500  0.84158076     0.02700
C435        C  0.44291795  0.71040696  0.84951530    -0.22700
C436        C  0.41626894  0.69236009  0.89120538     0.11800
S437        S  0.35450644  0.69701077  0.96554814    -0.06300
C438        C  0.37136444  0.64029289  0.94189007    -0.09800
C439        C  0.40507290  0.64336282  0.90226704    -0.26400
S440        S  0.46692344  0.79075218  0.78958773    -0.03600
C441        C  0.44659623  0.84655538  0.81366166    -0.17100
C442        C  0.42341016  0.84275034  0.85976081    -0.15100
H443        H  0.37603261  0.80107111  0.94194865     0.20300
H444        H  0.45964344  0.68538842  0.82277111     0.16400
H445        H  0.41685663  0.61210496  0.87995143     0.18900
H446        H  0.40701195  0.87345529  0.87981057     0.12200
C447        C  0.40855966  0.19938645  0.88085494     0.16100
C448        C  0.41524493  0.23941869  0.91424931    -0.33000
C449        C  0.39437808  0.28562410  0.90093879     0.20500
C450        C  0.36805663  0.29120733  0.85672978     0.02700
C451        C  0.36197670  0.25180817  0.82352335    -0.22700
C452        C  0.38269809  0.20619767  0.83658456     0.11800
S453        S  0.43254815  0.14052643  0.88730054    -0.06300
C454        C  0.40920395  0.12656868  0.82863226    -0.09800
C455        C  0.38240429  0.16492134  0.80728128    -0.26400
S456        S  0.34085875  0.34748439  0.84910749    -0.03600
C457        C  0.36424473  0.36462824  0.90643295    -0.17100
C458        C  0.39342877  0.32845706  0.92912652    -0.15100
H459        H  0.43546704  0.23475857  0.94896991     0.20300
H460        H  0.34144054  0.25640371  0.78895675     0.16400
H461        H  0.36657215  0.16389358  0.77000148     0.18900
H462        H  0.41005386  0.33204117  0.96567741     0.12200
C463        C  0.39877455  0.79594244  0.12527805     0.16100
C464        C  0.36692698  0.76577775  0.09698972    -0.33000
C465        C  0.37375989  0.71435762  0.10005352     0.20500
C466        C  0.41243524  0.69350993  0.12701017     0.02700
C467        C  0.44309098  0.72358865  0.15691170    -0.22700
C468        C  0.43417958  0.77490987  0.15635867     0.11800
S469        S  0.39472122  0.85913964  0.12959814    -0.06300
C470        C  0.43889400  0.85672077  0.17623471    -0.09800
C471        C  0.45549968  0.80936858  0.18703859    -0.26400
S472        S  0.41533696  0.62997697  0.12281160    -0.03600
C473        C  0.36223113  0.63191994  0.08648418    -0.17100
C474        C  0.34370527  0.67922104  0.07926205    -0.15100
H475        H  0.33706610  0.78151380  0.07487517     0.20300
H476        H  0.47147641  0.70764653  0.18072370     0.16400
H477        H  0.47935775  0.80006627  0.21804164     0.18900
H478        H  0.30939835  0.68761388  0.05959637     0.12200
C479        C  0.40919008  0.19186803  0.10647968     0.16100
C480        C  0.38575661  0.22029415  0.06941604    -0.33000
C481        C  0.38818169  0.27218007  0.07409346     0.20500
C482        C  0.41550067  0.29489531  0.11175865     0.02700
C483        C  0.43839431  0.26654666  0.14892261    -0.22700
C484        C  0.43306293  0.21491609  0.14614673     0.11800
S485        S  0.40708621  0.12837190  0.11094672    -0.06300
C486        C  0.43619824  0.13362944  0.16817008    -0.09800
C487        C  0.44688462  0.18194469  0.18209555    -0.26400
S488        S  0.41233286  0.35818292  0.11209413    -0.03600
C489        C  0.37120593  0.35398645  0.06292325    -0.17100
C490        C  0.36180730  0.30590228  0.04672989    -0.15100
H491        H  0.36439714  0.20284558  0.03982565     0.20300
H492        H  0.45718591  0.28403346  0.18017384     0.16400
H493        H  0.46236761  0.19263065  0.21783693     0.18900
H494        H  0.33514462  0.29603384  0.01788437     0.12200
C495        C  0.12812423  0.60300588  0.80447324     0.16100
C496        C  0.09038700  0.62523689  0.77623229    -0.33000
C497        C  0.09383792  0.62202722  0.72395631     0.20500
C498        C  0.13200050  0.59649559  0.70048181     0.02700
C499        C  0.17050598  0.57534312  0.72871244    -0.22700
C500        C  0.16796069  0.58007431  0.78099135     0.11800
S501        S  0.13100629  0.60257638  0.86850482    -0.06300
C502        C  0.18732262  0.57260907  0.86338300    -0.09800
C503        C  0.20271621  0.56411534  0.81457609    -0.26400
S504        S  0.12920044  0.59771080  0.63637853    -0.03600
C505        C  0.07716539  0.63463902  0.64148559    -0.17100
C506        C  0.06321103  0.64475924  0.69042159    -0.15100
H507        H  0.06009902  0.64491193  0.79414566     0.20300
H508        H  0.20153427  0.55685810  0.71076331     0.16400
H509        H  0.23768579  0.54696756  0.80420319     0.18900
H510        H  0.03332363  0.66958387  0.70094662     0.12200
C511        C  0.12202150  0.59004779  0.20120902     0.16100
C512        C  0.09194362  0.62225644  0.22877052    -0.33000
C513        C  0.09501923  0.62008422  0.28105563     0.20500
C514        C  0.12389044  0.58516094  0.30537664     0.02700
C515        C  0.15475943  0.55326129  0.27775522    -0.22700
C516        C  0.15412149  0.55771222  0.22523201     0.11800
S517        S  0.12763318  0.59110744  0.13746594    -0.06300
C518        C  0.17629078  0.55025512  0.14316229    -0.09800
C519        C  0.18587248  0.53529019  0.19205791    -0.26400
S520        S  0.12103456  0.58885721  0.36949296    -0.03600
C521        C  0.08253082  0.63952429  0.36287457    -0.17100
C522        C  0.07338557  0.65241699  0.31362812    -0.15100
H523        H  0.06886905  0.64950403  0.21024990     0.20300
H524        H  0.17972468  0.52775359  0.29632988     0.16400
H525        H  0.21614649  0.51116056  0.20296426     0.18900
H526        H  0.05405673  0.68546886  0.30204467     0.12200
C527        C  0.12549398  0.40713923  0.69402847     0.16100
C528        C  0.16375704  0.43062298  0.72126636    -0.33000
C529        C  0.16091205  0.42878087  0.77381369     0.20500
C530        C  0.12075268  0.40673576  0.79826394     0.02700
C531        C  0.08313147  0.38247898  0.77109300    -0.22700
C532        C  0.08719122  0.38234241  0.71871812     0.11800
S533        S  0.12346140  0.40148994  0.63009756    -0.06300
C534        C  0.07176376  0.36344158  0.63707685    -0.09800
C535        C  0.05748345  0.35623548  0.68647122    -0.26400
S536        S  0.12417346  0.40883618  0.86221393    -0.03600
C537        C  0.18151316  0.43771540  0.85608206    -0.17100
C538        C  0.19636040  0.44545105  0.80678104    -0.15100
H539        H  0.19517464  0.44810142  0.70242753     0.20300
H540        H  0.05285237  0.36314308  0.78997984     0.16400
H541        H  0.02918681  0.33031698  0.69871651     0.18900
H542        H  0.23198621  0.46121370  0.79552438     0.12200
C543        C  0.12377126  0.41399124  0.20487738     0.16100
C544        C  0.08370326  0.41074520  0.23902259    -0.33000
C545        C  0.09427332  0.39326165  0.28761420     0.20500
C546        C  0.14249211  0.38108957  0.30179468     0.02700
C547        C  0.18239035  0.38619885  0.26855033    -0.22700
C548        C  0.17171709  0.40194959  0.21996469     0.11800
S549        S  0.11975709  0.43012885  0.14266141    -0.06300
C550        C  0.18340753  0.42037683  0.13787474    -0.09800
C551        C  0.20557181  0.40549919  0.18213631    -0.26400
S552        S  0.14725011  0.35426785  0.35928400    -0.03600
C553        C  0.08350587  0.35860133  0.36456762    -0.17100
C554        C  0.06028989  0.38140320  0.32434201    -0.15100
H555        H  0.04582122  0.41905037  0.22762328     0.20300
H556        H  0.21991740  0.37576699  0.27930565     0.16400
H557        H  0.24506759  0.39796847  0.18666176     0.18900
H558        H  0.02073929  0.38688611  0.32089494     0.12200
loop_ 
_geom_bond_atom_site_label_1 
_geom_bond_atom_site_label_2 
_geom_bond_distance 
_geom_bond_site_symmetry_2 
_ccdc_geom_bond_type 
O1            C9   1.268       .  A
O1          Co21   1.999   1_554  S
O2           C10   1.269       .  A
O2          Co22   1.981   1_556  S
O3           C11   1.275       .  A
O3          Co23   2.025       .  S
O4           C12   1.275       .  A
O4          Co24   2.028       .  S
O5           C11   1.273       .  A
O5          Co22   1.980       .  S
O6           C12   1.271       .  A
O6          Co21   1.978       .  S
O7           C10   1.268       .  A
O7          Co24   2.008       .  S
O8            C9   1.266       .  A
O8          Co23   2.003       .  S
C9          C550   1.476       .  S
C10         C502   1.471       .  S
C11         C518   1.475       .  S
C12         C537   1.478       .  S
O13          C26   1.269       .  A
O13         Co21   2.010       .  S
O14          C27   1.265       .  A
O14         Co22   1.994       .  S
O15          C28   1.272       .  A
O15         Co23   1.978       .  S
O16          C29   1.274       .  A
O16         Co24   1.989       .  S
O17          C29   1.275       .  A
O17         Co22   2.017   1_556  S
O18          C28   1.274       .  A
O18         Co21   2.016   1_554  S
O19          C26   1.270       .  A
O19         Co24   1.996       .  S
O20          C27   1.270       .  A
O20         Co23   1.994       .  S
Co21         O25   2.104   1_556  S
Co22         O25   2.100       .  S
Co23         O25   2.109       .  S
Co24         O25   2.113   1_556  S
C26         C457   1.473       .  S
C27         C473   1.474       .  S
C28         C489   1.470       .  S
C29         C438   1.479       .  S
O30          C38   1.271       .  A
O30         Co50   2.016       .  S
O31          C39   1.269       .  A
O31         Co51   2.011       .  S
O32          C40   1.268       .  A
O32         Co52   1.970       .  S
O33          C41   1.270       .  A
O33         Co53   1.984   1_554  S
O34          C40   1.273       .  A
O34         Co51   2.024       .  S
O35          C41   1.270       .  A
O35         Co50   2.006       .  S
O36          C39   1.265       .  A
O36         Co53   1.977       .  S
O37          C38   1.266       .  A
O37         Co52   1.977   1_554  S
C38         C422   1.472       .  S
C39         C377   1.465       .  S
C40         C406   1.469       .  S
C41         C393   1.474       .  S
O42          C55   1.273       .  A
O42         Co50   1.992       .  S
O43          C56   1.268       .  A
O43         Co51   1.989       .  S
O44          C57   1.273       .  A
O44         Co52   2.018   1_554  S
O45          C58   1.275       .  A
O45         Co53   2.029       .  S
O46          C58   1.267       .  A
O46         Co51   1.977       .  S
O47          C57   1.270       .  A
O47         Co50   1.978       .  S
O48          C55   1.265       .  A
O48         Co53   1.991   1_554  S
O49          C56   1.268       .  A
O49         Co52   2.006       .  S
Co50         O54   2.104   1_554  S
Co51         O54   2.108       .  S
Co52         O54   2.105       .  S
Co53         O54   2.107       .  S
C55         C310   1.467       .  S
C56         C361   1.477       .  S
C57         C326   1.475       .  S
C58         C342   1.467       .  S
O59          C67   1.265       .  A
O59         Co79   1.974       .  S
O60          C68   1.271       .  A
O60         Co80   1.989       .  S
O61          C69   1.273       .  A
O61         Co81   2.012       .  S
O62          C70   1.276       .  A
O62         Co82   2.034       .  S
O63          C69   1.268       .  A
O63         Co80   1.971       .  S
O64          C70   1.263       .  A
O64         Co79   1.964       .  S
O65          C68   1.266       .  A
O65         Co82   1.996   1_565  S
O66          C67   1.271       .  A
O66         Co81   2.024   1_545  S
C67         C297   1.475       .  S
C68         C246   1.475       .  S
C69         C262   1.466       .  S
C70         C281   1.467       .  S
O71          C84   1.271       .  A
O71         Co79   2.023       .  S
O72          C85   1.270       .  A
O72         Co80   2.015       .  S
O73          C86   1.268       .  A
O73         Co81   1.981   1_545  S
O74          C87   1.273       .  A
O74         Co82   1.995   1_565  S
O75          C87   1.270       .  A
O75         Co80   2.002       .  S
O76          C86   1.272       .  A
O76         Co79   2.015       .  S
O77          C84   1.266       .  A
O77         Co82   1.978       .  S
O78          C85   1.267       .  A
O78         Co81   1.976       .  S
Co79         O83   2.103   1_545  S
Co80         O83   2.109       .  S
Co81         O83   2.114       .  S
Co82         O83   2.109   1_545  S
C84         C329   1.478       .  S
C85         C470   1.471       .  S
C86         C486   1.474       .  S
C87         C313   1.477       .  S
O88          C96   1.270       .  A
O88        Co108   2.015   1_545  S
O89          C97   1.271       .  A
O89        Co109   2.023   1_565  S
O90          C98   1.267       .  A
O90        Co110   1.972       .  S
O91          C99   1.269       .  A
O91        Co111   1.979       .  S
O92          C98   1.273       .  A
O92        Co109   2.013       .  S
O93          C99   1.275       .  A
O93        Co108   2.022       .  S
O94          C97   1.270       .  A
O94        Co111   1.978       .  S
O95          C96   1.268       .  A
O95        Co110   1.979       .  S
C96         C230   1.473       .  S
C97         C185   1.479       .  S
C98         C217   1.467       .  S
C99         C198   1.466       .  S
O100        C113   1.272       .  A
O100       Co108   1.991       .  S
O101        C114   1.268       .  A
O101       Co109   1.977       .  S
O102        C115   1.270       .  A
O102       Co110   2.008       .  S
O103        C116   1.272       .  A
O103       Co111   2.012       .  S
O104        C116   1.270       .  A
O104       Co109   1.993   1_565  S
O105        C115   1.274       .  A
O105       Co108   2.007   1_545  S
O106        C113   1.267       .  A
O106       Co111   2.008       .  S
O107        C114   1.270       .  A
O107       Co110   2.015       .  S
Co108       O112   2.108   1_565  S
Co109       O112   2.110       .  S
Co110       O112   2.104       .  S
Co111       O112   2.101   1_565  S
C113        C441   1.475       .  S
C114        C358   1.471       .  S
C115        C454   1.481       .  S
C116        C345   1.476       .  S
O117        C125   1.263       .  A
O117       Co137   1.970       .  S
O118        C126   1.268       .  A
O118       Co138   1.979       .  S
O119        C127   1.269       .  A
O119       Co139   2.003       .  S
O120        C128   1.272       .  A
O120       Co140   2.019   1_455  S
O121        C127   1.273       .  A
O121       Co138   1.989       .  S
O122        C128   1.269       .  A
O122       Co137   1.981       .  S
O123        C126   1.272       .  A
O123       Co140   2.009       .  S
O124        C125   1.275       .  A
O124       Co139   2.033   1_455  S
C125        C553   1.466       .  S
C126        C409   1.473       .  S
C127        C425   1.473       .  S
C128        C534   1.478       .  S
O129        C142   1.269       .  A
O129       Co137   2.011       .  S
O130        C143   1.267       .  A
O130       Co138   2.000       .  S
O131        C144   1.266       .  A
O131       Co139   1.970   1_455  S
O132        C145   1.267       .  A
O132       Co140   1.970       .  S
O133        C145   1.274       .  A
O133       Co138   2.023       .  S
O134        C144   1.273       .  A
O134       Co137   2.026       .  S
O135        C142   1.269       .  A
O135       Co140   1.989   1_455  S
O136        C143   1.271       .  A
O136       Co139   2.001       .  S
Co137       O141   2.102   1_455  S
Co138       O141   2.108       .  S
Co139       O141   2.111       .  S
Co140       O141   2.107       .  S
C142        C233   1.479       .  S
C143        C278   1.477       .  S
C144        C294   1.473       .  S
C145        C214   1.469       .  S
O146        C154   1.274       .  A
O146       Co166   2.024       .  S
O147        C155   1.271       .  A
O147       Co167   2.018   1_655  S
O148        C156   1.271       .  A
O148       Co168   1.984       .  S
O149        C157   1.268       .  A
O149       Co169   1.977       .  S
O150        C156   1.270       .  A
O150       Co167   2.004       .  S
O151        C157   1.270       .  A
O151       Co166   2.008   1_655  S
O152        C155   1.260       .  A
O152       Co169   1.962       .  S
O153        C154   1.267       .  A
O153       Co168   1.977       .  S
C154        C521   1.478       .  S
C155        C374   1.455       .  S
C156        C505   1.471       .  S
C157        C390   1.469       .  S
O158        C171   1.269       .  A
O158       Co166   1.991   1_655  S
O159        C172   1.270       .  A
O159       Co167   1.999       .  S
O160        C173   1.273       .  A
O160       Co168   2.019       .  S
O161        C174   1.276       .  A
O161       Co169   2.035       .  S
O162        C174   1.268       .  A
O162       Co167   1.971   1_655  S
O163        C173   1.264       .  A
O163       Co166   1.960       .  S
O164        C171   1.266       .  A
O164       Co169   2.003       .  S
O165        C172   1.267       .  A
O165       Co168   2.005       .  S
Co166       O170   2.106       .  S
Co167       O170   2.109       .  S
Co168       O170   2.112       .  S
Co169       O170   2.103   1_655  S
C171        C249   1.475       .  S
C172        C201   1.477       .  S
C173        C265   1.461       .  S
C174        C182   1.479       .  S
C175        S181   1.718       .  A
C175        C180   1.385       .  A
C175        C176   1.407       .  A
C176        C177   1.409       .  A
C176        H187   1.083       .  S
C177        C186   1.373       .  A
C177        C178   1.385       .  A
C178        S184   1.711       .  A
C178        C179   1.400       .  A
C179        C180   1.403       .  A
C179        H188   1.083       .  S
C180        C183   1.367       .  A
S181        C182   1.727       .  A
C182        C183   1.385       .  A
C183        H189   1.079       .  S
S184        C185   1.721       .  A
C185        C186   1.393       .  A
C186        H190   1.081       .  S
C191        S197   1.704       .  A
C191        C196   1.385       .  A
C191        C192   1.397       .  A
C192        C193   1.400       .  A
C192        H203   1.083       .  S
C193        C202   1.362       .  A
C193        C194   1.385       .  A
C194        S200   1.721       .  A
C194        C195   1.407       .  A
C195        C196   1.410       .  A
C195        H204   1.083       .  S
C196        C199   1.374       .  A
S197        C198   1.720       .  A
C198        C199   1.387       .  A
C199        H205   1.077       .  S
S200        C201   1.726       .  A
C201        C202   1.388       .  A
C202        H206   1.084       .  S
C207        S213   1.711       .  A
C207        C212   1.386       .  A
C207        C208   1.399       .  A
C208        C209   1.402       .  A
C208        H219   1.083       .  S
C209        C218   1.363       .  A
C209        C210   1.386       .  A
C210        S216   1.713       .  A
C210        C211   1.400       .  A
C211        C212   1.403       .  A
C211        H220   1.083       .  S
C212        C215   1.365       .  A
S213        C214   1.720       .  A
C214        C215   1.386       .  A
C215        H221   1.082       .  S
S216        C217   1.720       .  A
C217        C218   1.384       .  A
C218        H222   1.079       .  S
C223        S229   1.712       .  A
C223        C228   1.386       .  A
C223        C224   1.400       .  A
C224        C225   1.403       .  A
C224        H235   1.083       .  S
C225        C234   1.364       .  A
C225        C226   1.385       .  A
C226        S232   1.719       .  A
C226        C227   1.404       .  A
C227        C228   1.407       .  A
C227        H236   1.083       .  S
C228        C231   1.370       .  A
S229        C230   1.721       .  A
C230        C231   1.390       .  A
C231        H237   1.083       .  S
S232        C233   1.724       .  A
C233        C234   1.388       .  A
C234        H238   1.083       .  S
C239        S245   1.720       .  A
C239        C244   1.384       .  A
C239        C240   1.403       .  A
C240        C241   1.408       .  A
C240        H251   1.083       .  S
C241        C250   1.366       .  A
C241        C242   1.385       .  A
C242        S248   1.715       .  A
C242        C243   1.399       .  A
C243        C244   1.403       .  A
C243        H252   1.083       .  S
C244        C247   1.361       .  A
S245        C246   1.724       .  A
C246        C247   1.389       .  A
C247        H253   1.084       .  S
S248        C249   1.720       .  A
C249        C250   1.390       .  A
C250        H254   1.081       .  S
C255        S261   1.712       .  A
C255        C260   1.386       .  A
C255        C256   1.400       .  A
C256        C257   1.403       .  A
C256        H267   1.083       .  S
C257        C266   1.364       .  A
C257        C258   1.387       .  A
C258        S264   1.706       .  A
C258        C259   1.396       .  A
C259        C260   1.399       .  A
C259        H268   1.083       .  S
C260        C263   1.359       .  A
S261        C262   1.721       .  A
C262        C263   1.383       .  A
C263        H269   1.081       .  S
S264        C265   1.717       .  A
C265        C266   1.385       .  A
C266        H270   1.082       .  S
C271        S277   1.721       .  A
C271        C276   1.385       .  A
C271        C272   1.404       .  A
C272        C273   1.408       .  A
C272        H283   1.083       .  S
C273        C282   1.365       .  A
C273        C274   1.385       .  A
C274        S280   1.709       .  A
C274        C275   1.395       .  A
C275        C276   1.400       .  A
C275        H284   1.083       .  S
C276        C279   1.359       .  A
S277        C278   1.725       .  A
C278        C279   1.388       .  A
C279        H285   1.083       .  S
S280        C281   1.718       .  A
C281        C282   1.382       .  A
C282        H286   1.067       .  S
C287        S293   1.714       .  A
C287        C292   1.385       .  A
C287        C288   1.403       .  A
C288        C289   1.406       .  A
C288        H299   1.083       .  S
C289        C298   1.369       .  A
C289        C290   1.386       .  A
C290        S296   1.711       .  A
C290        C291   1.401       .  A
C291        C292   1.403       .  A
C291        H300   1.083       .  S
C292        C295   1.366       .  A
S293        C294   1.723       .  A
C294        C295   1.385       .  A
C295        H301   1.080       .  S
S296        C297   1.722       .  A
C297        C298   1.388       .  A
C298        H302   1.080       .  S
C303        S309   1.715       .  A
C303        C308   1.385       .  A
C303        C304   1.398       .  A
C304        C305   1.403       .  A
C304        H315   1.083       .  S
C305        C314   1.359       .  A
C305        C306   1.384       .  A
C306        S312   1.721       .  A
C306        C307   1.402       .  A
C307        C308   1.407       .  A
C307        H316   1.083       .  S
C308        C311   1.364       .  A
S309        C310   1.719       .  A
C310        C311   1.389       .  A
C311        H317   1.084       .  S
S312        C313   1.723       .  A
C313        C314   1.388       .  A
C314        H318   1.083       .  S
C319        S325   1.713       .  A
C319        C324   1.385       .  A
C319        C320   1.401       .  A
C320        C321   1.405       .  A
C320        H331   1.083       .  S
C321        C330   1.367       .  A
C321        C322   1.385       .  A
C322        S328   1.715       .  A
C322        C323   1.403       .  A
C323        C324   1.406       .  A
C323        H332   1.083       .  S
C324        C327   1.368       .  A
S325        C326   1.722       .  A
C326        C327   1.389       .  A
C327        H333   1.078       .  S
S328        C329   1.724       .  A
C329        C330   1.388       .  A
C330        H334   1.082       .  S
C335        S341   1.700       .  A
C335        C340   1.386       .  A
C335        C336   1.393       .  A
C336        C337   1.396       .  A
C336        H347   1.083       .  S
C337        C346   1.359       .  A
C337        C338   1.385       .  A
C338        S344   1.723       .  A
C338        C339   1.410       .  A
C339        C340   1.412       .  A
C339        H348   1.083       .  S
C340        C343   1.376       .  A
S341        C342   1.716       .  A
C342        C343   1.390       .  A
C343        H349   1.077       .  S
S344        C345   1.728       .  A
C345        C346   1.384       .  A
C346        H350   1.084       .  S
C351        S357   1.710       .  A
C351        C356   1.387       .  A
C351        C352   1.398       .  A
C352        C353   1.401       .  A
C352        H363   1.083       .  S
C353        C362   1.363       .  A
C353        C354   1.385       .  A
C354        S360   1.720       .  A
C354        C355   1.406       .  A
C355        C356   1.409       .  A
C355        H364   1.083       .  S
C356        C359   1.372       .  A
S357        C358   1.718       .  A
C358        C359   1.390       .  A
C359        H365   1.083       .  S
S360        C361   1.725       .  A
C361        C362   1.386       .  A
C362        H366   1.082       .  S
C367        S373   1.701       .  A
C367        C372   1.387       .  A
C367        C368   1.393       .  A
C368        C369   1.396       .  A
C368        H379   1.083       .  S
C369        C378   1.358       .  A
C369        C370   1.386       .  A
C370        S376   1.714       .  A
C370        C371   1.402       .  A
C371        C372   1.405       .  A
C371        H380   1.083       .  S
C372        C375   1.366       .  A
S373        C374   1.716       .  A
C374        C375   1.382       .  A
C375        H381   1.075       .  S
S376        C377   1.723       .  A
C377        C378   1.383       .  A
C378        H382   1.084       .  S
C383        S389   1.712       .  A
C383        C388   1.385       .  A
C383        C384   1.397       .  A
C384        C385   1.402       .  A
C384        H395   1.083       .  S
C385        C394   1.359       .  A
C385        C386   1.384       .  A
C386        S392   1.718       .  A
C386        C387   1.401       .  A
C387        C388   1.406       .  A
C387        H396   1.083       .  S
C388        C391   1.363       .  A
S389        C390   1.720       .  A
C390        C391   1.386       .  A
C391        H397   1.075       .  S
S392        C393   1.722       .  A
C393        C394   1.387       .  A
C394        H398   1.083       .  S
C399        S405   1.704       .  A
C399        C404   1.387       .  A
C399        C400   1.393       .  A
C400        C401   1.397       .  A
C400        H411   1.083       .  S
C401        C410   1.358       .  A
C401        C402   1.385       .  A
C402        S408   1.721       .  A
C402        C403   1.408       .  A
C403        C404   1.410       .  A
C403        H412   1.083       .  S
C404        C407   1.372       .  A
S405        C406   1.715       .  A
C406        C407   1.391       .  A
C407        H413   1.083       .  S
S408        C409   1.727       .  A
C409        C410   1.381       .  A
C410        H414   1.080       .  S
C415        S421   1.719       .  A
C415        C420   1.385       .  A
C415        C416   1.403       .  A
C416        C417   1.408       .  A
C416        H427   1.083       .  S
C417        C426   1.366       .  A
C417        C418   1.386       .  A
C418        S424   1.714       .  A
C418        C419   1.398       .  A
C419        C420   1.402       .  A
C419        H428   1.083       .  S
C420        C423   1.361       .  A
S421        C422   1.724       .  A
C422        C423   1.382       .  A
C423        H429   1.077       .  S
S424        C425   1.719       .  A
C425        C426   1.392       .  A
C426        H430   1.083       .  S
C431        S437   1.688       .  A
C431        C436   1.386       .  A
C431        C432   1.399       .  A
C432        C433   1.396       .  A
C432        H443   1.083       .  S
C433        C442   1.374       .  A
C433        C434   1.387       .  A
C434        S440   1.703       .  A
C434        C435   1.409       .  A
C435        C436   1.406       .  A
C435        H444   1.083       .  S
C436        C439   1.385       .  A
S437        C438   1.720       .  A
C438        C439   1.391       .  A
C439        H445   1.083       .  S
S440        C441   1.730       .  A
C441        C442   1.382       .  A
C442        H446   1.083       .  S
C447        S453   1.726       .  A
C447        C452   1.385       .  A
C447        C448   1.413       .  A
C448        C449   1.415       .  A
C448        H459   1.083       .  S
C449        C458   1.382       .  A
C449        C450   1.385       .  A
C450        S456   1.701       .  A
C450        C451   1.395       .  A
C451        C452   1.398       .  A
C451        H460   1.083       .  S
C452        C455   1.363       .  A
S453        C454   1.730       .  A
C454        C455   1.386       .  A
C455        H461   1.084       .  S
S456        C457   1.719       .  A
C457        C458   1.393       .  A
C458        H462   1.079       .  S
C463        S469   1.714       .  A
C463        C468   1.385       .  A
C463        C464   1.398       .  A
C464        C465   1.403       .  A
C464        H475   1.083       .  S
C465        C474   1.359       .  A
C465        C466   1.384       .  A
C466        S472   1.721       .  A
C466        C467   1.402       .  A
C467        C468   1.407       .  A
C467        H476   1.083       .  S
C468        C471   1.363       .  A
S469        C470   1.720       .  A
C470        C471   1.386       .  A
C471        H477   1.077       .  S
S472        C473   1.723       .  A
C473        C474   1.386       .  A
C474        H478   1.083       .  S
C479        S485   1.718       .  A
C479        C484   1.385       .  A
C479        C480   1.403       .  A
C480        C481   1.407       .  A
C480        H491   1.083       .  S
C481        C490   1.367       .  A
C481        C482   1.386       .  A
C482        S488   1.711       .  A
C482        C483   1.398       .  A
C483        C484   1.402       .  A
C483        H492   1.083       .  S
C484        C487   1.362       .  A
S485        C486   1.723       .  A
C486        C487   1.384       .  A
C487        H493   1.081       .  S
S488        C489   1.719       .  A
C489        C490   1.390       .  A
C490        H494   1.083       .  S
C495        S501   1.714       .  A
C495        C500   1.386       .  A
C495        C496   1.399       .  A
C496        C497   1.403       .  A
C496        H507   1.083       .  S
C497        C506   1.363       .  A
C497        C498   1.385       .  A
C498        S504   1.716       .  A
C498        C499   1.402       .  A
C499        C500   1.405       .  A
C499        H508   1.083       .  S
C500        C503   1.365       .  A
S501        C502   1.720       .  A
C502        C503   1.388       .  A
C503        H509   1.082       .  S
S504        C505   1.723       .  A
C505        C506   1.388       .  A
C506        H510   1.084       .  S
C511        S517   1.711       .  A
C511        C516   1.386       .  A
C511        C512   1.399       .  A
C512        C513   1.402       .  A
C512        H523   1.083       .  S
C513        C522   1.365       .  A
C513        C514   1.385       .  A
C514        S520   1.719       .  A
C514        C515   1.407       .  A
C515        C516   1.409       .  A
C515        H524   1.083       .  S
C516        C519   1.371       .  A
S517        C518   1.718       .  A
C518        C519   1.392       .  A
C519        H525   1.083       .  S
S520        C521   1.727       .  A
C521        C522   1.384       .  A
C522        H526   1.079       .  S
C527        S533   1.717       .  A
C527        C532   1.384       .  A
C527        C528   1.405       .  A
C528        C529   1.408       .  A
C528        H539   1.083       .  S
C529        C538   1.369       .  A
C529        C530   1.385       .  A
C530        S536   1.713       .  A
C530        C531   1.401       .  A
C531        C532   1.404       .  A
C531        H540   1.083       .  S
C532        C535   1.366       .  A
S533        C534   1.725       .  A
C534        C535   1.387       .  A
C535        H541   1.076       .  S
S536        C537   1.721       .  A
C537        C538   1.391       .  A
C538        H542   1.082       .  S
C543        S549   1.722       .  A
C543        C548   1.385       .  A
C543        C544   1.408       .  A
C544        C545   1.411       .  A
C544        H555   1.083       .  S
C545        C554   1.372       .  A
C545        C546   1.386       .  A
C546        S552   1.703       .  A
C546        C547   1.393       .  A
C547        C548   1.397       .  A
C547        H556   1.083       .  S
C548        C551   1.359       .  A
S549        C550   1.728       .  A
C550        C551   1.385       .  A
C551        H557   1.084       .  S
S552        C553   1.714       .  A
C553        C554   1.388       .  A
C554        H558   1.073       .  S
