geometry optimzed in LAMMPS
_audit_creation_date              2020-11-30 
_audit_creation_method            'lammps2cif' 
_symmetry_space_group_name_H-M    'P1' 
_symmetry_Int_Tables_number       1 
_symmetry_cell_setting            triclinic 
loop_ 
_symmetry_equiv_pos_as_xyz 
  x,y,z 
_cell_length_a                    52.33438281 
_cell_length_b                    52.43859587097224 
_cell_length_c                    77.32724355333906 
_cell_angle_alpha                 90.03568734761193 
_cell_angle_beta                  90.1085764144156 
_cell_angle_gamma                 89.27474993694456 
loop_ 
_atom_site_label 
_atom_site_type_symbol 
_atom_site_fract_x 
_atom_site_fract_y 
_atom_site_fract_z 
_atom_site_charge 
C1          C  0.99245573  0.62685283  0.98786152     0.80000
N2          N  0.99186919  0.63877593  0.00340132    -0.78300
C3          C  0.99148925  0.62513159  0.01827730     0.82500
N4          N  0.99143353  0.59926452  0.01761641    -0.78200
C5          C  0.99227215  0.58710534  0.00210155     0.82500
N6          N  0.99281296  0.60096348  0.98723660    -0.80000
C7          C  0.55658795  0.08859165  0.01216757     0.80000
N8          N  0.56828867  0.09083189  0.99657763    -0.78300
C9          C  0.55433116  0.09229910  0.98181294     0.82500
N10         N  0.52852555  0.09145906  0.98262462    -0.78200
C11         C  0.51653824  0.08890450  0.99802144     0.82500
N12         N  0.53060400  0.08735682  0.01284375    -0.80000
C13         C  0.94652790  0.58557755  0.48568971     0.80000
N14         N  0.97225369  0.58803445  0.48477347    -0.78300
C15         C  0.98635940  0.59069237  0.49939549     0.82500
N16         N  0.97448308  0.59135138  0.51504000    -0.78200
C17         C  0.94865027  0.58897282  0.51613328     0.82500
N18         N  0.93483595  0.58570071  0.50137925    -0.80000
C19         C  0.51431710  0.02294969  0.51882114     0.80000
N20         N  0.51030300  0.04860924  0.51825935    -0.78300
C21         C  0.50828932  0.06080197  0.50277669     0.82500
N22         N  0.50966191  0.04715337  0.48788474    -0.78200
C23         C  0.51368483  0.02155550  0.48834862     0.82500
N24         N  0.51630367  0.00959317  0.50382431    -0.80000
C25         C  0.50432659  0.12841167  0.51624909     0.80000
N26         N  0.50211977  0.14035813  0.50074772    -0.78300
C27         C  0.50163860  0.12662364  0.48586003     0.82500
N28         N  0.50321666  0.10075732  0.48656304    -0.78200
C29         C  0.50554793  0.08868202  0.50205380     0.82500
N30         N  0.50626353  0.10259414  0.51683843    -0.80000
C31         C  0.05194316  0.58449588  0.48176208     0.80000
N32         N  0.02609731  0.58701638  0.48275929    -0.78300
C33         C  0.01443398  0.59048380  0.49829424     0.82500
N34         N  0.02881772  0.59195423  0.51287813    -0.78200
C35         C  0.05466714  0.58950723  0.51204554     0.82500
N36         N  0.06612324  0.58548005  0.49649305    -0.80000
N37         N  0.70430137  0.12418326  0.82379763    -0.27500
N38         N  0.68764041  0.13583821  0.83396697    -0.35400
C39         C  0.68626055  0.16061434  0.82959514     0.00800
C40         C  0.70279417  0.16461902  0.81588707     0.06900
C41         C  0.71394176  0.14103540  0.81266053    -0.06200
H42         H  0.67366080  0.17440180  0.83570059     0.07500
H43         H  0.72776635  0.13614035  0.80279929     0.08700
Cu44       Cu  0.66725909  0.11699006  0.85272339     0.44200
Cu45       Cu  0.71249604  0.08584056  0.82443643     0.42000
Cu46       Cu  0.67990637  0.04792369  0.85507424     0.43900
N47         N  0.65255099  0.09312763  0.87131058    -0.34900
N48         N  0.65771181  0.06842171  0.87245084    -0.29100
C49         C  0.64690490  0.05924404  0.88685826    -0.05200
C50         C  0.63415654  0.07905744  0.89504065     0.07000
C51         C  0.63801876  0.10023078  0.88481410     0.00800
H52         H  0.64855891  0.03967115  0.89117421     0.08400
H53         H  0.63179715  0.11961121  0.88741318     0.07500
N54         N  0.70279461  0.03246929  0.83585489    -0.36300
N55         N  0.71502837  0.04676924  0.82464484    -0.28500
C56         C  0.72765399  0.03176001  0.81341472    -0.03800
C57         C  0.72316770  0.00658409  0.81770282     0.04900
C58         C  0.70727258  0.00780114  0.83205631     0.02900
H59         H  0.73855660  0.03881443  0.80260036     0.08100
H60         H  0.69918434  0.99204080  0.83909881     0.06900
O61         O  0.70285593  0.32543408  0.73211764    -0.73200
O62         O  0.76637672  0.33795448  0.75985447    -0.74100
O63         O  0.72771044  0.30080390  0.75988456    -0.62800
O64         O  0.74174243  0.36288819  0.73179018    -0.71200
O65         O  0.71879528  0.38607823  0.75020968    -0.70700
O66         O  0.70568164  0.32394847  0.77883479    -0.62000
O67         O  0.74399679  0.36184716  0.77819861    -0.74500
O68         O  0.68052009  0.34844470  0.75097742    -0.73300
Cu69       Cu  0.73546778  0.33095843  0.74526718     1.04600
Cu70       Cu  0.71147409  0.35590039  0.76520031     1.04300
C71         C  0.68152211  0.33472275  0.73733666     0.93000
C72         C  0.76527291  0.35207985  0.77332163     0.92200
C73         C  0.71447723  0.30240553  0.77370718     0.84300
C74         C  0.73242575  0.38439985  0.73654320     0.90600
O75         O  0.75691200  0.87749339  0.75392815    -0.73200
O76         O  0.76894969  0.81677027  0.72279717    -0.74100
O77         O  0.73102230  0.85588185  0.72535855    -0.62800
O78         O  0.79514361  0.83869815  0.75105221    -0.71200
O79         O  0.77347893  0.81465495  0.76931461    -0.70700
O80         O  0.70889273  0.83136030  0.74306557    -0.62000
O81         O  0.74725604  0.79272828  0.74103977    -0.74500
O82         O  0.73462039  0.85302091  0.77157570    -0.73300
Cu83       Cu  0.76376464  0.84807285  0.73766443     1.04600
Cu84       Cu  0.74029695  0.82212569  0.75688086     1.04300
C85         C  0.74351652  0.87480556  0.76761826     0.93000
C86         C  0.76021758  0.79501634  0.72716701     0.92200
C87         C  0.70980182  0.84637845  0.73005803     0.84300
C88         C  0.79465497  0.82385065  0.76412449     0.90600
N89         N  0.95504662  0.77320877  0.82730426    -0.27500
N90         N  0.94291418  0.75988824  0.83911806    -0.35400
C91         C  0.91762171  0.76161730  0.83606889     0.00800
C92         C  0.91361132  0.77682076  0.82155484     0.06900
C93         C  0.93795166  0.78378077  0.81642588    -0.06200
H94         H  0.90335822  0.75221471  0.84379259     0.07500
H95         H  0.94315019  0.79544773  0.80550290     0.08700
Cu96       Cu  0.96213066  0.73966916  0.85831064     0.44200
Cu97       Cu  0.99432374  0.77580006  0.82616533     0.42000
Cu98       Cu  0.03229325  0.73606214  0.85440866     0.43900
N99         N  0.98616499  0.71943366  0.87487875    -0.34900
N100        N  0.01126423  0.71736075  0.87311611    -0.29100
C101        C  0.02063313  0.70233697  0.88577694    -0.05200
C102        C  0.00053755  0.69491852  0.89610630     0.07000
C103        C  0.97900783  0.70615327  0.88887926     0.00800
H104        H  0.04067403  0.69776274  0.88760313     0.08400
H105        H  0.95951974  0.70461035  0.89336844     0.07500
N106        N  0.04787882  0.75994595  0.83596526    -0.36300
N107        N  0.03374768  0.77461430  0.82578888    -0.28500
C108        C  0.04902461  0.78773964  0.81520534    -0.03800
C109        C  0.07420037  0.78107942  0.81879452     0.04900
C110        C  0.07265826  0.76336922  0.83211659     0.02900
H111        H  0.04206039  0.80095487  0.80551693     0.08100
H112        H  0.08825597  0.75337986  0.83845528     0.06900
O113        O  0.27180734  0.83448646  0.73486795    -0.73200
O114        O  0.20867211  0.82146970  0.76289413    -0.74100
O115        O  0.24619282  0.86049280  0.76216847    -0.62800
O116        O  0.23437395  0.79557504  0.73551502    -0.71200
O117        O  0.25753059  0.77397922  0.75471498    -0.70700
O118        O  0.26996238  0.83860224  0.78085353    -0.62000
O119        O  0.23233700  0.80016855  0.78195287    -0.74500
O120        O  0.29490648  0.81205465  0.75369013    -0.73300
Cu121      Cu  0.23940761  0.82877462  0.74818379     1.04600
Cu122      Cu  0.26443279  0.80549776  0.76847542     1.04300
C123        C  0.29330330  0.82518713  0.73982647     0.93000
C124        C  0.21057547  0.80861999  0.77689750     0.92200
C125        C  0.26030977  0.85978710  0.77568214     0.84300
C126        C  0.24418707  0.77454104  0.74086999     0.90600
N127        N  0.94417360  0.36878307  0.82325539    -0.27500
N128        N  0.93067842  0.38012029  0.83555404    -0.35400
C129        C  0.90573493  0.37905264  0.83153392     0.00800
C130        C  0.90327109  0.36622166  0.81599673     0.06900
C131        C  0.92806084  0.35994326  0.81114043    -0.06200
H132        H  0.89053707  0.38680475  0.83949814     0.07500
H133        H  0.93402712  0.34999092  0.79954550     0.08700
Cu134      Cu  0.94628582  0.39650254  0.85736615     0.44200
Cu135      Cu  0.98391167  0.36647751  0.82327088     0.42000
Cu136      Cu  0.01460891  0.40113162  0.85810875     0.43900
N137        N  0.96606050  0.41368206  0.87723086    -0.34900
N138        N  0.99114810  0.41623474  0.87720802    -0.29100
C139        C  0.99812291  0.42912147  0.89145072    -0.05200
C140        C  0.97637979  0.43457105  0.90096608     0.07000
C141        C  0.95639678  0.42443459  0.89163015     0.00800
H142        H  0.01760571  0.43375953  0.89479055     0.08400
H143        H  0.93630178  0.42522851  0.89487807     0.07500
N144        N  0.03433384  0.38200917  0.83870538    -0.36300
N145        N  0.02336441  0.36924133  0.82603101    -0.28500
C146        C  0.04168617  0.35927524  0.81575026    -0.03800
C147        C  0.06544651  0.36605909  0.82226901     0.04900
C148        C  0.05981964  0.38048892  0.83686673     0.02900
H149        H  0.03782319  0.34811935  0.80430159     0.08100
H150        H  0.07312889  0.38944782  0.84559433     0.06900
O151        O  0.23324074  0.28433413  0.75289487    -0.73200
O152        O  0.22199093  0.35258257  0.73031487    -0.74100
O153        O  0.26121070  0.31507223  0.72976740    -0.62800
O154        O  0.19352816  0.32186593  0.75350429    -0.71200
O155        O  0.21218759  0.34060950  0.77581336    -0.70700
O156        O  0.28021014  0.33434146  0.75174216    -0.62000
O157        O  0.24036269  0.37166582  0.75261139    -0.74500
O158        O  0.25250930  0.30333834  0.77486863    -0.73300
Cu159      Cu  0.22679608  0.31783678  0.74087985     1.04600
Cu160      Cu  0.24691501  0.33815866  0.76456306     1.04300
C161        C  0.24516626  0.28299683  0.76731849     0.93000
C162        C  0.22961979  0.37288874  0.73776964     0.92200
C163        C  0.28142057  0.32355404  0.73692509     0.84300
C164        C  0.19204961  0.33227070  0.76842189     0.90600
N165        N  0.28731647  0.03839763  0.82424504    -0.27500
N166        N  0.29669561  0.02453002  0.83710025    -0.35400
C167        C  0.29317114  0.99971349  0.83344701     0.00800
C168        C  0.28092519  0.99782751  0.81753374     0.06900
C169        C  0.27754835  0.02285013  0.81215000    -0.06200
H170        H  0.29921394  0.98422849  0.84179415     0.07500
H171        H  0.26903970  0.02940211  0.80016940     0.08700
Cu172      Cu  0.31464547  0.04000974  0.85881034     0.44200
Cu173      Cu  0.28879412  0.07780434  0.82319873     0.42000
Cu174      Cu  0.32626678  0.10822306  0.85609568     0.43900
N175        N  0.33491814  0.06043101  0.87745635    -0.34900
N176        N  0.33977194  0.08504829  0.87608477    -0.29100
C177        C  0.35398890  0.09232080  0.88970545    -0.05200
C178        C  0.35815367  0.07140829  0.90032652     0.07000
C179        C  0.34566683  0.05152107  0.89215744     0.00800
H180        H  0.36046369  0.11157574  0.89185002     0.08400
H181        H  0.34484071  0.03190332  0.89641876     0.07500
N182        N  0.30809528  0.12808672  0.83613415    -0.36300
N183        N  0.29411763  0.11683060  0.82419907    -0.28500
C184        C  0.28449903  0.13458556  0.81337900    -0.03800
C185        C  0.29278658  0.15840227  0.81867857     0.04900
C186        C  0.30776968  0.15338735  0.83319996     0.02900
H187        H  0.27237282  0.13026359  0.80246394     0.08100
H188        H  0.31755454  0.16704113  0.84123495     0.06900
N189        N  0.20317142  0.61567818  0.67420074    -0.27500
N190        N  0.19286603  0.62880526  0.66131010    -0.35400
C191        C  0.19351829  0.65378873  0.66517997     0.00800
C192        C  0.20488536  0.65663352  0.68126680     0.06900
C193        C  0.21078692  0.63198758  0.68656431    -0.06200
H194        H  0.18636788  0.66875519  0.65678327     0.07500
H195        H  0.21961197  0.62621268  0.69862540     0.08700
Cu196      Cu  0.17837458  0.61237405  0.63893416     0.44200
Cu197      Cu  0.20581405  0.57616039  0.67463113     0.42000
Cu198      Cu  0.18412501  0.54371604  0.63618588     0.43900
N199        N  0.16584777  0.59126086  0.61786391    -0.34900
N200        N  0.16871711  0.56623315  0.61675380    -0.29100
C201        C  0.15873810  0.55816118  0.60172801    -0.05200
C202        C  0.14880630  0.57905267  0.59298905     0.07000
C203        C  0.15360041  0.59974904  0.60361904     0.00800
H204        H  0.15794694  0.53839551  0.59776820     0.08400
H205        H  0.14848880  0.61948903  0.60122439     0.07500
N206        N  0.19634003  0.52495216  0.65828193    -0.36300
N207        N  0.20426880  0.53678122  0.67234233    -0.28500
C208        C  0.21040100  0.51931235  0.68441514    -0.03800
C209        C  0.20613128  0.49517201  0.67766913     0.04900
C210        C  0.19716205  0.49965008  0.66102046     0.02900
H211        H  0.21732652  0.52406045  0.69717596     0.08100
H212        H  0.19138818  0.48569368  0.65153979     0.06900
N213        N  0.52267088  0.28586338  0.67345421    -0.27500
N214        N  0.53504814  0.27035627  0.66281710    -0.35400
C215        C  0.56001484  0.27022833  0.66691952     0.00800
C216        C  0.56364807  0.28651487  0.68083567     0.06900
C217        C  0.53941430  0.29601817  0.68459654    -0.06200
H218        H  0.57437168  0.25923593  0.66006142     0.07500
H219        H  0.53407903  0.30929908  0.69469394     0.08700
Cu220      Cu  0.51783546  0.25056388  0.64287282     0.44200
Cu221      Cu  0.48358257  0.29253524  0.67281873     0.42000
Cu222      Cu  0.44974805  0.25939154  0.63923778     0.43900
N223        N  0.49636681  0.23616106  0.62269236    -0.34900
N224        N  0.47145414  0.23989963  0.62114130    -0.29100
C225        C  0.46337891  0.22909317  0.60637004    -0.05200
C226        C  0.48422945  0.21780972  0.59832661     0.07000
C227        C  0.50480949  0.22263496  0.60905149     0.00800
H228        H  0.44376007  0.22925314  0.60193045     0.08400
H229        H  0.52456175  0.21715962  0.60694825     0.07500
N230        N  0.43185384  0.27924714  0.65897475    -0.36300
N231        N  0.44409837  0.29172113  0.67121461    -0.28500
C232        C  0.42693488  0.30179697  0.68228894    -0.03800
C233        C  0.40259870  0.29524277  0.67678150     0.04900
C234        C  0.40663144  0.28094762  0.66190873     0.02900
H235        H  0.43199528  0.31252772  0.69370609     0.08100
H236        H  0.39245104  0.27179091  0.65394079     0.06900
N237        N  0.53128183  0.87440605  0.68086156    -0.27500
N238        N  0.54473321  0.88807623  0.66991512    -0.35400
C239        C  0.56968937  0.88487694  0.67349827     0.00800
C240        C  0.57214945  0.86833273  0.68743824     0.06900
C241        C  0.54726476  0.86209733  0.69170436    -0.06200
H242        H  0.58477470  0.89415888  0.66646236     0.07500
H243        H  0.54100796  0.84993098  0.70210815     0.08700
Cu244      Cu  0.52848815  0.91068297  0.65078530     0.44200
Cu245      Cu  0.49186843  0.87384595  0.68095565     0.42000
Cu246      Cu  0.45910954  0.91290404  0.64908469     0.43900
N247        N  0.50777477  0.93083140  0.63234586    -0.34900
N248        N  0.48252228  0.93193929  0.63184694    -0.29100
C249        C  0.47517303  0.94671398  0.61847471    -0.05200
C250        C  0.49683149  0.95509354  0.61007834     0.07000
C251        C  0.51715181  0.94459652  0.61918717     0.00800
H252        H  0.45550747  0.95069729  0.61495311     0.08400
H253        H  0.53727824  0.94692780  0.61653389     0.07500
N254        N  0.44052325  0.89209717  0.66800108    -0.36300
N255        N  0.45263860  0.87774955  0.67950121    -0.28500
C256        C  0.43548546  0.86691996  0.68998223    -0.03800
C257        C  0.41127605  0.87481153  0.68489602     0.04900
C258        C  0.41523578  0.89083028  0.67091295     0.02900
H259        H  0.44043465  0.85455013  0.70069542     0.08100
H260        H  0.40086664  0.90082467  0.66336392     0.06900
N261        N  0.78754017  0.61814737  0.67476752    -0.27500
N262        N  0.80192072  0.63159148  0.66421035    -0.35400
C263        C  0.80044832  0.65628755  0.66900560     0.00800
C264        C  0.78441750  0.65845878  0.68331003     0.06900
C265        C  0.77668068  0.63372510  0.68649764    -0.06200
H266        H  0.81050185  0.67143894  0.66256355     0.07500
H267        H  0.76406101  0.62725540  0.69659066     0.08700
Cu268      Cu  0.82294573  0.61525842  0.64384443     0.44200
Cu269      Cu  0.78311537  0.57918210  0.67334029     0.42000
Cu270      Cu  0.81562468  0.54597647  0.63959601     0.43900
N271        N  0.84007730  0.59316741  0.62428644    -0.34900
N272        N  0.83657187  0.56831330  0.62264775    -0.29100
C273        C  0.84864114  0.55996564  0.60834910    -0.05200
C274        C  0.86072124  0.58031873  0.60065679     0.07000
C275        C  0.85494802  0.60110539  0.61112960     0.00800
H276        H  0.84858815  0.54042823  0.60384545     0.08400
H277        H  0.86038748  0.62068582  0.60899181     0.07500
N278        N  0.79523931  0.52742015  0.65880396    -0.36300
N279        N  0.78308368  0.54000659  0.67113581    -0.28500
C280        C  0.77223181  0.52334627  0.68194474    -0.03800
C281        C  0.77781354  0.49883052  0.67624574     0.04900
C282        C  0.79250875  0.50222060  0.66148213     0.02900
H283        H  0.76171119  0.52887258  0.69339533     0.08100
H284        H  0.80090354  0.48755171  0.65338128     0.06900
C285        C  0.45048666  0.07851920  0.01330097     0.80000
N286        N  0.47610043  0.08243136  0.01331603    -0.78300
C287        C  0.48858929  0.08656580  0.99824432     0.82500
N288        N  0.47522947  0.08736250  0.98313377    -0.78200
C289        C  0.44960331  0.08346623  0.98297329     0.82500
N290        N  0.43738382  0.07874477  0.99810184    -0.80000
C291        C  0.98825498  0.52156058  0.98482781     0.80000
N292        N  0.99048225  0.54727337  0.98575942    -0.78300
C293        C  0.99137939  0.55916063  0.00133247     0.82500
N294        N  0.99060050  0.54512210  0.01609850    -0.78200
C295        C  0.98843580  0.51932679  0.01530326     0.82500
N296        N  0.98703278  0.50771366  0.99962371    -0.80000
N297        N  0.96655277  0.77968561  0.17771928    -0.27500
N298        N  0.95324799  0.77074174  0.16454402    -0.35400
C299        C  0.92821058  0.77486369  0.16747904     0.00800
C300        C  0.92545850  0.78702199  0.18331544     0.06900
C301        C  0.95027538  0.78968855  0.18939723    -0.06200
H302        H  0.91321921  0.76937850  0.15863941     0.07500
H303        H  0.95624187  0.79819319  0.20146041     0.08700
Cu304      Cu  0.96935383  0.75312774  0.14314423     0.44200
Cu305      Cu  0.00632465  0.77852520  0.17937129     0.42000
Cu306      Cu  0.03802917  0.75374085  0.14164621     0.43900
N307        N  0.99050873  0.73644729  0.12349001    -0.34900
N308        N  0.01570835  0.73734286  0.12283625    -0.29100
C309        C  0.02389475  0.72543157  0.10848576    -0.05200
C310        C  0.00283949  0.71635543  0.09977733     0.07000
C311        C  0.98194691  0.72355463  0.10964271     0.00800
H312        H  0.04374420  0.72316936  0.10483353     0.08400
H313        H  0.96203716  0.72000092  0.10686517     0.07500
N314        N  0.05723299  0.76850991  0.16256671    -0.36300
N315        N  0.04594808  0.77749053  0.17659534    -0.28500
C316        C  0.06406568  0.78534885  0.18772259    -0.03800
C317        C  0.08795647  0.78104870  0.18029094     0.04900
C318        C  0.08264318  0.77034414  0.16431156     0.02900
H319        H  0.06001655  0.79348070  0.20028617     0.08100
H320        H  0.09610959  0.76420444  0.15453492     0.06900
O321        O  0.30308749  0.81584460  0.25000501    -0.73200
O322        O  0.23516754  0.80653482  0.22596864    -0.74100
O323        O  0.27424779  0.84419739  0.22540185    -0.62800
O324        O  0.26418311  0.77795590  0.25040027    -0.71200
O325        O  0.24422865  0.79865570  0.27154508    -0.70700
O326        O  0.25514304  0.86468408  0.24697885    -0.62000
O327        O  0.21625156  0.82759905  0.24735620    -0.74500
O328        O  0.28332552  0.83591923  0.27147736    -0.73300
Cu329      Cu  0.26989418  0.81037640  0.23718756     1.04600
Cu330      Cu  0.24911688  0.83240207  0.26005846     1.04300
C331        C  0.30392283  0.82767320  0.26447951     0.93000
C332        C  0.21486798  0.81551273  0.23305206     0.92200
C333        C  0.26652233  0.86500488  0.23237609     0.84300
C334        C  0.25202132  0.77778283  0.26472036     0.90600
O335        O  0.78778543  0.82245123  0.23807114    -0.73200
O336        O  0.72466677  0.83317467  0.26703563    -0.74100
O337        O  0.76642247  0.79780308  0.26716365    -0.62800
O338        O  0.74636798  0.85785578  0.23808314    -0.71200
O339        O  0.72427092  0.83307514  0.22045994    -0.70700
O340        O  0.74520598  0.77236241  0.24948184    -0.62000
O341        O  0.70331264  0.80771863  0.24944107    -0.74500
O342        O  0.76594526  0.79763486  0.22032583    -0.73300
Cu343      Cu  0.75704076  0.82869098  0.25319678     1.04600
Cu344      Cu  0.73392527  0.80179361  0.23433162     1.04300
C345        C  0.78684622  0.80829617  0.22461055     0.93000
C346        C  0.70388605  0.82227095  0.26269651     0.92200
C347        C  0.75926545  0.77547905  0.26285925     0.84300
C348        C  0.73215691  0.85517765  0.22476983     0.90600
N349        N  0.71281630  0.11058184  0.17006225    -0.27500
N350        N  0.70165956  0.12317195  0.15730075    -0.35400
C351        C  0.70636166  0.14818230  0.15913877     0.00800
C352        C  0.72123757  0.15161067  0.17386770     0.06900
C353        C  0.72493320  0.12715911  0.18038637    -0.06200
H354        H  0.69884083  0.16273357  0.15057261     0.07500
H355        H  0.73501739  0.12168998  0.19204279     0.08700
Cu356      Cu  0.67916946  0.10542191  0.13884539     0.44200
Cu357      Cu  0.70961250  0.07162004  0.17319004     0.42000
Cu358      Cu  0.66462625  0.03795277  0.14597248     0.43900
N359        N  0.65439109  0.08435288  0.12365590    -0.34900
N360        N  0.64836220  0.06029142  0.12653478    -0.29100
C361        C  0.63130871  0.05292083  0.11452538    -0.05200
C362        C  0.62666909  0.07320281  0.10345845     0.07000
C363        C  0.64166398  0.09275776  0.10961860     0.00800
H364        H  0.62344757  0.03398352  0.11362745     0.08400
H365        H  0.64308833  0.11180382  0.10436587     0.07500
N366        N  0.68704331  0.02027585  0.16481608    -0.36300
N367        N  0.70342773  0.03282617  0.17453217    -0.28500
C368        C  0.71536141  0.01642823  0.18520891    -0.03800
C369        C  0.70620427  0.99211606  0.18218181     0.04900
C370        C  0.68817672  0.99538220  0.16910202     0.02900
H371        H  0.72972520  0.02210037  0.19444748     0.08100
H372        H  0.67677987  0.98083540  0.16302318     0.06900
O373        O  0.78279791  0.33576763  0.27384165    -0.73200
O374        O  0.77350305  0.26971581  0.24756800    -0.74100
O375        O  0.81219775  0.30732770  0.24935567    -0.62800
O376        O  0.74435067  0.29801090  0.27216835    -0.71200
O377        O  0.72520118  0.31920491  0.25088676    -0.70700
O378        O  0.79313087  0.32801538  0.22781479    -0.62000
O379        O  0.75420668  0.29091371  0.22636992    -0.74500
O380        O  0.76369408  0.35641598  0.25231548    -0.73300
Cu381      Cu  0.77888594  0.30195034  0.26146927     1.04600
Cu382      Cu  0.75844615  0.32437433  0.23860540     1.04300
C383        C  0.77438446  0.35659086  0.26719839     0.93000
C384        C  0.76228115  0.26988663  0.23283762     0.92200
C385        C  0.81343167  0.31909947  0.23493224     0.84300
C386        C  0.72405987  0.30718441  0.26522965     0.90600
N387        N  0.32466205  0.10685176  0.18681141    -0.27500
N388        N  0.33304987  0.12166353  0.17430079    -0.35400
C389        C  0.32656270  0.14602297  0.17795929     0.00800
C390        C  0.31339674  0.14659653  0.19358275     0.06900
C391        C  0.31274431  0.12126085  0.19875062    -0.06200
H392        H  0.33083179  0.16199354  0.16966280     0.07500
H393        H  0.30379263  0.11352985  0.21015279     0.08700
Cu394      Cu  0.35199414  0.10731641  0.15263896     0.44200
Cu395      Cu  0.32766798  0.06748391  0.18653460     0.42000
Cu396      Cu  0.34781478  0.03884071  0.14603728     0.43900
N397        N  0.36787673  0.08801231  0.13162004    -0.34900
N398        N  0.36561525  0.06322715  0.12895056    -0.29100
C399        C  0.37724999  0.05694794  0.11401487    -0.05200
C400        C  0.38762265  0.07878150  0.10703685     0.07000
C401        C  0.38137314  0.09808372  0.11856781     0.00800
H402        H  0.37849038  0.03781256  0.10881596     0.08400
H403        H  0.38595753  0.11806868  0.11743401     0.07500
N404        N  0.33199237  0.01855512  0.16623123    -0.36300
N405        N  0.32502289  0.02897452  0.18107500    -0.28500
C406        C  0.31535037  0.01084927  0.19133606    -0.03800
C407        C  0.31625588  0.98779714  0.18254428     0.04900
C408        C  0.32701175  0.99347874  0.16666096     0.02900
H409        H  0.30813309  0.01436640  0.20421966     0.08100
H410        H  0.33074542  0.98048688  0.15607295     0.06900
N411        N  0.97664685  0.36542178  0.17560410    -0.27500
N412        N  0.96396520  0.37529358  0.16238855    -0.35400
C413        C  0.93909333  0.36989358  0.16404205     0.00800
C414        C  0.93576109  0.35585329  0.17906933     0.06900
C415        C  0.96015263  0.35340580  0.18604551    -0.06200
H416        H  0.92454765  0.37637506  0.15507989     0.07500
H417        H  0.96561139  0.34399967  0.19795667     0.08700
Cu418      Cu  0.98056352  0.39681409  0.14304415     0.44200
Cu419      Cu  0.01557011  0.36991030  0.17888033     0.42000
Cu420      Cu  0.04655829  0.41305264  0.14831141     0.43900
N421        N  0.99982721  0.42054167  0.12621229    -0.34900
N422        N  0.02386807  0.42723620  0.12844287    -0.29100
C423        C  0.03036446  0.44364274  0.11586737    -0.05200
C424        C  0.00944535  0.44719471  0.10509836     0.07000
C425        C  0.99047006  0.43218549  0.11202232     0.00800
H426        H  0.04900382  0.45211209  0.11455665     0.08400
H427        H  0.97109087  0.43032415  0.10733575     0.07500
N428        N  0.06546130  0.39331599  0.16781394    -0.36300
N429        N  0.05422113  0.37772907  0.17876296    -0.28500
C430        C  0.07193696  0.36753174  0.18934177    -0.03800
C431        C  0.09565337  0.37704089  0.18486707     0.04900
C432        C  0.09067815  0.39340623  0.17114178     0.02900
H433        H  0.06762258  0.35393351  0.19938064     0.08100
H434        H  0.10429414  0.40436863  0.16385373     0.06900
O435        O  0.27810694  0.30163891  0.23172881    -0.73200
O436        O  0.26290917  0.36196602  0.26196021    -0.74100
O437        O  0.30282186  0.32411172  0.26055934    -0.62800
O438        O  0.23823485  0.33885952  0.23354137    -0.71200
O439        O  0.21720206  0.31379820  0.25151597    -0.70700
O440        O  0.28061633  0.29987769  0.27839213    -0.62000
O441        O  0.24097716  0.33764669  0.27988623    -0.74500
O442        O  0.25692890  0.27660558  0.24962634    -0.73300
Cu443      Cu  0.27131484  0.33252127  0.24634667     1.04600
Cu444      Cu  0.24821740  0.30614557  0.26548260     1.04300
C445        C  0.27013261  0.27955166  0.23586386     0.93000
C446        C  0.24902873  0.35963326  0.27542631     0.92200
C447        C  0.30186836  0.30925516  0.27367094     0.84300
C448        C  0.21740733  0.32861768  0.23844533     0.90600
N449        N  0.48008279  0.27046311  0.32114961    -0.27500
N450        N  0.46592621  0.26173102  0.33391649    -0.35400
C451        C  0.44113757  0.26557836  0.32993967     0.00800
C452        C  0.43957970  0.27732002  0.31385052     0.06900
C453        C  0.46476901  0.28005866  0.30873849    -0.06200
H454        H  0.42550939  0.26035917  0.33828926     0.07500
H455        H  0.47166804  0.28840539  0.29688011     0.08700
Cu456      Cu  0.48112789  0.24520816  0.35619432     0.44200
Cu457      Cu  0.51958354  0.26950103  0.32101226     0.42000
Cu458      Cu  0.55052898  0.24787928  0.35966604     0.43900
N459        N  0.50206087  0.23075429  0.37697245    -0.34900
N460        N  0.52716971  0.23260531  0.37832841    -0.29100
C461        C  0.53487292  0.22215524  0.39332743    -0.05200
C462        C  0.51367574  0.21297048  0.40175655     0.07000
C463        C  0.49317194  0.21862574  0.39103154     0.00800
H464        H  0.55454747  0.22087447  0.39759965     0.08400
H465        H  0.47326222  0.21456180  0.39338019     0.07500
N466        N  0.57025678  0.26021557  0.33826024    -0.36300
N467        N  0.55883699  0.26810000  0.32396624    -0.28500
C468        C  0.57666619  0.27472791  0.31240346    -0.03800
C469        C  0.60056756  0.27079812  0.31977746     0.04900
C470        C  0.59568548  0.26151120  0.33620268     0.02900
H471        H  0.57239958  0.28175030  0.29955761     0.08100
H472        H  0.60948580  0.25621804  0.34603385     0.06900
N473        N  0.19765597  0.61584566  0.32154274    -0.27500
N474        N  0.18665694  0.62773608  0.33467981    -0.35400
C475        C  0.18802844  0.65306968  0.33209582     0.00800
C476        C  0.20058917  0.65729244  0.31656977     0.06900
C477        C  0.20632349  0.63315323  0.31028564    -0.06200
H478        H  0.18082727  0.66727868  0.34104858     0.07500
H479        H  0.21622075  0.62832454  0.29844570     0.08700
Cu480      Cu  0.17119920  0.60853425  0.35562325     0.44200
Cu481      Cu  0.20146178  0.57670751  0.31953901     0.42000
Cu482      Cu  0.18655789  0.54042757  0.35757980     0.43900
N483        N  0.15969195  0.58449931  0.37543113    -0.34900
N484        N  0.16619540  0.56008685  0.37656543    -0.29100
C485        C  0.15613988  0.55035982  0.39112497    -0.05200
C486        C  0.14227877  0.56944535  0.39936577     0.07000
C487        C  0.14493736  0.59078835  0.38904114     0.00800
H488        H  0.15807419  0.53065494  0.39510845     0.08400
H489        H  0.13691702  0.60960305  0.39133466     0.07500
N490        N  0.20092064  0.52415166  0.33499528    -0.36300
N491        N  0.20607208  0.53757488  0.32101417    -0.28500
C492        C  0.21466740  0.52181626  0.30855294    -0.03800
C493        C  0.21497761  0.49709572  0.31492967     0.04900
C494        C  0.20604719  0.49938176  0.33176991     0.02900
H495        H  0.22019055  0.52804035  0.29578307     0.08100
H496        H  0.20355373  0.48423910  0.34107578     0.06900
N497        N  0.80439210  0.60263403  0.31652253    -0.27500
N498        N  0.81557132  0.61813765  0.32757012    -0.35400
C499        C  0.81114322  0.64238391  0.32266341     0.00800
C500        C  0.79638140  0.64231341  0.30771389     0.06900
C501        C  0.79251545  0.61661719  0.30426089    -0.06200
H502        H  0.81819958  0.65874792  0.32960687     0.07500
H503        H  0.78190072  0.60849278  0.29364526     0.08700
Cu504      Cu  0.83607004  0.60553235  0.34893446     0.44200
Cu505      Cu  0.80589675  0.56315804  0.31883691     0.42000
Cu506      Cu  0.83468606  0.53711655  0.35776286     0.43900
N507        N  0.85360464  0.58844903  0.37009285    -0.34900
N508        N  0.85251963  0.56379911  0.37358823    -0.29100
C509        C  0.86543621  0.55917349  0.38834249    -0.05200
C510        C  0.87534102  0.58193967  0.39436295     0.07000
C511        C  0.86743581  0.60007079  0.38240894     0.00800
H512        H  0.86785692  0.54047336  0.39405204     0.08400
H513        H  0.87119220  0.62030459  0.38269424     0.07500
N514        N  0.81963766  0.51456925  0.33806632    -0.36300
N515        N  0.80934291  0.52433428  0.32388204    -0.28500
C516        C  0.80187168  0.50526558  0.31350613    -0.03800
C517        C  0.80761493  0.48216278  0.32144201     0.04900
C518        C  0.81899306  0.48889668  0.33702782     0.02900
H519        H  0.79312560  0.50817354  0.30097143     0.08100
H520        H  0.82630404  0.47613939  0.34689939     0.06900
N521        N  0.46657299  0.87637741  0.32498333    -0.27500
N522        N  0.45417617  0.89249527  0.33518129    -0.35400
C523        C  0.42903328  0.89126324  0.33179902     0.00800
C524        C  0.42527440  0.87348547  0.31878289     0.06900
C525        C  0.44961596  0.86451051  0.31475755    -0.06200
H526        H  0.41462004  0.90249989  0.33843142     0.07500
H527        H  0.45469964  0.85012266  0.30530062     0.08700
Cu528      Cu  0.47178575  0.91488590  0.35363568     0.44200
Cu529      Cu  0.50593351  0.87118450  0.32579450     0.42000
Cu530      Cu  0.54014687  0.90630003  0.35899546     0.43900
N531        N  0.49267456  0.93234306  0.37295322    -0.34900
N532        N  0.51750711  0.92875458  0.37521749    -0.29100
C533        C  0.52489550  0.94167348  0.38936561    -0.05200
C534        C  0.50372620  0.95413150  0.39625584     0.07000
C535        C  0.48365445  0.94781799  0.38546520     0.00800
H536        H  0.54427053  0.94196195  0.39425759     0.08400
H537        H  0.46379882  0.95342330  0.38686785     0.07500
N538        N  0.55798411  0.88401053  0.34015983    -0.36300
N539        N  0.54542766  0.87119291  0.32820903    -0.28500
C540        C  0.56229773  0.85957305  0.31765660    -0.03800
C541        C  0.58686234  0.86534290  0.32308917     0.04900
C542        C  0.58323991  0.88089237  0.33747582     0.02900
H543        H  0.55683353  0.84837368  0.30654355     0.08100
H544        H  0.59777619  0.88982655  0.34526945     0.06900
C545        C  0.32537188  0.30212207  0.28331225    -0.05500
C546        C  0.32373676  0.28624206  0.29792408    -0.05400
C547        C  0.34570626  0.27822330  0.30670184    -0.23500
C548        C  0.36980895  0.28592389  0.30107265     0.18700
C549        C  0.37177614  0.30197278  0.28647055     0.15900
C550        C  0.34955712  0.31002967  0.27769081    -0.18600
C551        C  0.39595594  0.30956793  0.28087056    -0.20400
C552        C  0.41793444  0.30146681  0.28970155    -0.13000
C553        C  0.41621124  0.28558106  0.30432018     0.03700
C554        C  0.39194306  0.27781359  0.30984582    -0.25100
H555        H  0.30540519  0.27977784  0.30254583     0.08800
H556        H  0.34383220  0.26591601  0.31786833     0.12400
H557        H  0.35113674  0.32215311  0.26640500     0.12300
H558        H  0.39788189  0.32185162  0.26969814     0.12100
H559        H  0.43623770  0.30795448  0.28511306     0.12600
H560        H  0.39013511  0.26538068  0.32093253     0.14600
C561        C  0.22351824  0.47356601  0.30578051    -0.05500
C562        C  0.23857906  0.47528451  0.29078836    -0.05400
C563        C  0.24695993  0.45333563  0.28216023    -0.23500
C564        C  0.24037931  0.42916201  0.28828852     0.18700
C565        C  0.22517785  0.42707655  0.30328129     0.15900
C566        C  0.21688810  0.44926472  0.31195595    -0.18600
C567        C  0.21845073  0.40281922  0.30927763    -0.20400
C568        C  0.22655629  0.38086686  0.30042963    -0.13000
C569        C  0.24163536  0.38273216  0.28545871     0.03700
C570        C  0.24858829  0.40706955  0.27955418    -0.25100
H571        H  0.24424786  0.49360856  0.28577386     0.08800
H572        H  0.25861041  0.45528677  0.27067935     0.12400
H573        H  0.20509630  0.44754137  0.32337612     0.12300
H574        H  0.20676653  0.40082209  0.32073565     0.12100
H575        H  0.22080655  0.36241960  0.30523348     0.12600
H576        H  0.26006139  0.40890612  0.26797723     0.14600
C577        C  0.19312770  0.33412203  0.22934332    -0.05500
C578        C  0.17049508  0.32271674  0.23509183    -0.05400
C579        C  0.14714231  0.32861113  0.22733075    -0.23500
C580        C  0.14592243  0.34609834  0.21369400     0.18700
C581        C  0.16851772  0.35746399  0.20760049     0.15900
C582        C  0.19204518  0.35132929  0.21541306    -0.18600
C583        C  0.16708111  0.37503040  0.19397710    -0.20400
C584        C  0.14345358  0.38143864  0.18659151    -0.13000
C585        C  0.12081152  0.37032729  0.19264518     0.03700
C586        C  0.12236230  0.35253252  0.20620392    -0.25100
H587        H  0.17073155  0.30937727  0.24577769     0.08800
H588        H  0.12998952  0.31969392  0.23213468     0.12400
H589        H  0.20934493  0.36025697  0.21085887     0.12300
H590        H  0.18419116  0.38394775  0.18911032     0.12100
H591        H  0.14305674  0.39516641  0.17616942     0.12600
H592        H  0.10531194  0.34363588  0.21110348     0.14600
C593        C  0.30175829  0.16901026  0.20263577    -0.05500
C594        C  0.28776311  0.16559209  0.21798624    -0.05400
C595        C  0.27755050  0.18642790  0.22698238    -0.23500
C596        C  0.28116924  0.21125327  0.22091897     0.18700
C597        C  0.29460078  0.21505848  0.20531371     0.15900
C598        C  0.30468632  0.19396284  0.19623071    -0.18600
C599        C  0.29826994  0.23996250  0.19930404    -0.20400
C600        C  0.28964088  0.26086137  0.20901045    -0.13000
C601        C  0.27696335  0.25730553  0.22485024     0.03700
C602        C  0.27223327  0.23232716  0.23049198    -0.25100
H603        H  0.28476502  0.14680437  0.22328191     0.08800
H604        H  0.26719027  0.18312103  0.23887309     0.12400
H605        H  0.31523218  0.19714526  0.18441589     0.12300
H606        H  0.30835463  0.24330951  0.18730901     0.12100
H607        H  0.29335644  0.27987106  0.20424672     0.12600
H608        H  0.26243322  0.22925039  0.24263461     0.14600
C609        C  0.83851447  0.32265311  0.22652593    -0.05500
C610        C  0.86132607  0.31787016  0.23567506    -0.05400
C611        C  0.88502822  0.32245027  0.22803707    -0.23500
C612        C  0.88633787  0.33176016  0.21106563     0.18700
C613        C  0.86353451  0.33587411  0.20160808     0.15900
C614        C  0.83982530  0.33136309  0.20937628    -0.18600
C615        C  0.86475462  0.34484665  0.18460050    -0.20400
C616        C  0.88827495  0.35054119  0.17718731    -0.13000
C617        C  0.91112974  0.34750994  0.18662672     0.03700
C618        C  0.90998897  0.33753504  0.20352272    -0.25100
H619        H  0.86086001  0.31105944  0.24888880     0.08800
H620        H  0.90229111  0.31903873  0.23547925     0.12400
H621        H  0.82240653  0.33487063  0.20210739     0.12300
H622        H  0.84747423  0.34783564  0.17709526     0.12100
H623        H  0.88834127  0.35766563  0.16407842     0.12600
H624        H  0.92729494  0.33487205  0.21102055     0.14600
C625        C  0.80293552  0.45619683  0.31436101    -0.05500
C626        C  0.81603343  0.43460903  0.32083644    -0.05400
C627        C  0.81250108  0.41050002  0.31338032    -0.23500
C628        C  0.79582042  0.40750183  0.29929115     0.18700
C629        C  0.78210801  0.42897201  0.29301860     0.15900
C630        C  0.78563509  0.45298382  0.30060871    -0.18600
C631        C  0.76541227  0.42624615  0.27899160    -0.20400
C632        C  0.76286791  0.40267236  0.27084554    -0.13000
C633        C  0.77676285  0.38116797  0.27662374     0.03700
C634        C  0.79292335  0.38363534  0.29113332    -0.25100
H635        H  0.82946654  0.43640355  0.33140954     0.08800
H636        H  0.82314878  0.39428587  0.31844773     0.12400
H637        H  0.77495436  0.46921686  0.29562501     0.12300
H638        H  0.75460771  0.44248870  0.27410618     0.12100
H639        H  0.75003338  0.40133329  0.25989154     0.12600
H640        H  0.80367620  0.36721734  0.29579777     0.14600
C641        C  0.69914427  0.30371023  0.27382102    -0.05500
C642        C  0.67688860  0.31526577  0.26707841    -0.05400
C643        C  0.65323383  0.31142849  0.27491017    -0.23500
C644        C  0.65141441  0.29587051  0.28957380     0.18700
C645        C  0.67369917  0.28443619  0.29659857     0.15900
C646        C  0.69740581  0.28850165  0.28873671    -0.18600
C647        C  0.67186879  0.26889754  0.31126786    -0.20400
C648        C  0.64811416  0.26453734  0.31882673    -0.13000
C649        C  0.62577226  0.27564021  0.31186089     0.03700
C650        C  0.62764693  0.29142394  0.29723837    -0.25100
H651        H  0.67771736  0.32719933  0.25567432     0.08800
H652        H  0.63634256  0.32043414  0.26940374     0.12400
H653        H  0.71441202  0.27952466  0.29410945     0.12300
H654        H  0.68876603  0.25996430  0.31681440     0.12100
H655        H  0.64727965  0.25216351  0.32999888     0.12600
H656        H  0.61069534  0.30040737  0.29182601     0.14600
C657        C  0.75837610  0.24568103  0.22323412    -0.05500
C658        C  0.76802064  0.22243069  0.22973413    -0.05400
C659        C  0.76367108  0.19953535  0.22096817    -0.23500
C660        C  0.74944384  0.19939909  0.20557395     0.18700
C661        C  0.74000477  0.22265905  0.19876453     0.15900
C662        C  0.74458448  0.24560276  0.20757150    -0.18600
C663        C  0.72577277  0.22254581  0.18339909    -0.20400
C664        C  0.72029470  0.19956317  0.17510639    -0.13000
C665        C  0.72895596  0.17613894  0.18196612     0.03700
C666        C  0.74403880  0.17635966  0.19709405    -0.25100
H667        H  0.77880352  0.22188916  0.24169501     0.08800
H668        H  0.77114407  0.18188835  0.22636580     0.12400
H669        H  0.73704056  0.26333999  0.20234046     0.12300
H670        H  0.71847619  0.24022301  0.17793636     0.12100
H671        H  0.70878847  0.20027829  0.16349169     0.12600
H672        H  0.75121695  0.15866758  0.20254495     0.14600
C673        C  0.71419465  0.96817844  0.19112859    -0.05500
C674        C  0.73306598  0.96887884  0.20411526    -0.05400
C675        C  0.74043934  0.94684475  0.21294992    -0.23500
C676        C  0.72914652  0.92352280  0.20903189     0.18700
C677        C  0.71042825  0.92224829  0.19589555     0.15900
C678        C  0.70306531  0.94457739  0.18699634    -0.18600
C679        C  0.69930041  0.89868238  0.19203154    -0.20400
C680        C  0.70649280  0.87672621  0.20124743    -0.13000
C681        C  0.72488188  0.87798753  0.21449716     0.03700
C682        C  0.73621181  0.90152190  0.21819996    -0.25100
H683        H  0.74223832  0.98646696  0.20766510     0.08800
H684        H  0.75489726  0.94810225  0.22295251     0.12400
H685        H  0.68859207  0.94349317  0.17702087     0.12300
H686        H  0.68493732  0.89726228  0.18198312     0.12100
H687        H  0.69745383  0.85883248  0.19813350     0.12600
H688        H  0.75051792  0.90281662  0.22830706     0.14600
C689        C  0.61137242  0.85839000  0.31438903    -0.05500
C690        C  0.63468543  0.86847953  0.32017408    -0.05400
C691        C  0.65751205  0.86305042  0.31145232    -0.23500
C692        C  0.65755944  0.84738917  0.29675721     0.18700
C693        C  0.63439036  0.83677312  0.29097804     0.15900
C694        C  0.61156180  0.84224142  0.29981954    -0.18600
C695        C  0.63435932  0.82106029  0.27631325    -0.20400
C696        C  0.65701257  0.81612635  0.26733011    -0.13000
C697        C  0.68019077  0.82680647  0.27280404     0.03700
C698        C  0.68030662  0.84235699  0.28765382    -0.25100
H699        H  0.63539230  0.88091060  0.33131653     0.08800
H700        H  0.67510285  0.87131779  0.31611700     0.12400
H701        H  0.59398855  0.83402118  0.29515590     0.12300
H702        H  0.61676660  0.81273694  0.27169618     0.12100
H703        H  0.65629063  0.80411828  0.25594672     0.12600
H704        H  0.69800138  0.85073521  0.29204750     0.14600
C705        C  0.76762224  0.75318832  0.27334009    -0.05500
C706        C  0.78282117  0.75662145  0.28816900    -0.05400
C707        C  0.79126615  0.73569337  0.29789919    -0.23500
C708        C  0.78471959  0.71087743  0.29297677     0.18700
C709        C  0.76941116  0.70716960  0.27815460     0.15900
C710        C  0.76093197  0.72829508  0.26844753    -0.18600
C711        C  0.76292430  0.68236199  0.27322830    -0.20400
C712        C  0.77159326  0.66140254  0.28284900    -0.13000
C713        C  0.78695329  0.66474978  0.29762118     0.03700
C714        C  0.79334872  0.68973567  0.30260269    -0.25100
H715        H  0.78831492  0.77554041  0.29225423     0.08800
H716        H  0.80299547  0.73892104  0.30922678     0.12400
H717        H  0.74929506  0.72530872  0.25703946     0.12300
H718        H  0.75118875  0.67914292  0.26190193     0.12100
H719        H  0.76618732  0.64258218  0.27860087     0.12600
H720        H  0.80512652  0.69291246  0.31388214     0.14600
C721        C  0.30756150  0.96265765  0.18880599    -0.05500
C722        C  0.31598689  0.93999224  0.18078935    -0.05400
C723        C  0.30872836  0.91625199  0.18721658    -0.23500
C724        C  0.29290385  0.91474991  0.20177935     0.18700
C725        C  0.28379672  0.93742870  0.20964071     0.15900
C726        C  0.29109440  0.96115312  0.20309566    -0.18600
C727        C  0.26793659  0.93604978  0.22416109    -0.20400
C728        C  0.26182645  0.91243773  0.23121503    -0.13000
C729        C  0.27134164  0.88972415  0.22384241     0.03700
C730        C  0.28651666  0.89102046  0.20886829    -0.25100
H731        H  0.32869020  0.94051321  0.16977759     0.08800
H732        H  0.31584608  0.89907963  0.18097538     0.12400
H733        H  0.28402990  0.97839085  0.20925489     0.12300
H734        H  0.26066280  0.95325561  0.23028149     0.12100
H735        H  0.24997668  0.91201736  0.24267297     0.12600
H736        H  0.29395443  0.87366582  0.20301907     0.14600
C737        C  0.32883875  0.83260530  0.27298035    -0.05500
C738        C  0.35190410  0.82663711  0.26451041    -0.05400
C739        C  0.37537895  0.83295891  0.27193682    -0.23500
C740        C  0.37626331  0.84538337  0.28798706     0.18700
C741        C  0.35324547  0.85104375  0.29678554     0.15900
C742        C  0.32973961  0.84456889  0.28927932    -0.18600
C743        C  0.35409575  0.86348517  0.31281700    -0.20400
C744        C  0.37748765  0.87065119  0.31993644    -0.13000
C745        C  0.40054405  0.86542741  0.31122629     0.03700
C746        C  0.39973803  0.85253357  0.29526712    -0.25100
H747        H  0.35181539  0.81749037  0.25195358     0.08800
H748        H  0.39283371  0.82842436  0.26501001     0.12400
H749        H  0.31215211  0.84927732  0.29601006     0.12300
H750        H  0.33665042  0.86785959  0.31979936     0.12100
H751        H  0.37743415  0.88017805  0.33234867     0.12600
H752        H  0.41727063  0.84845872  0.28831880     0.14600
C753        C  0.24613183  0.75329927  0.27319084    -0.05500
C754        C  0.25810931  0.73053862  0.26776908    -0.05400
C755        C  0.25166069  0.70727075  0.27527159    -0.23500
C756        C  0.23296663  0.70634135  0.28821716     0.18700
C757        C  0.22079015  0.72909618  0.29375531     0.15900
C758        C  0.22752603  0.75240711  0.28627644    -0.18600
C759        C  0.20199681  0.72812490  0.30662470    -0.20400
C760        C  0.19541321  0.70481587  0.31403201    -0.13000
C761        C  0.20744320  0.68203883  0.30866509     0.03700
C762        C  0.22623873  0.68303296  0.29569254    -0.25100
H763        H  0.27244489  0.73071198  0.25769077     0.08800
H764        H  0.26118090  0.68998227  0.27086993     0.12400
H765        H  0.21793781  0.76979286  0.29045159     0.12300
H766        H  0.19237468  0.74539429  0.31096117     0.12100
H767        H  0.18073540  0.70465731  0.32386321     0.12600
H768        H  0.23593758  0.66576080  0.29148851     0.14600
C769        C  0.18945088  0.81170298  0.22498787    -0.05500
C770        C  0.16724980  0.82047332  0.23348079    -0.05400
C771        C  0.14308244  0.81646000  0.22638399    -0.23500
C772        C  0.14055050  0.80359384  0.21061440     0.18700
C773        C  0.16268210  0.79485244  0.20186360     0.15900
C774        C  0.18697478  0.79890846  0.20909198    -0.18600
C775        C  0.16011688  0.78207763  0.18606979    -0.20400
C776        C  0.13591451  0.77780357  0.17908055    -0.13000
C777        C  0.11365594  0.78617444  0.18772042     0.03700
C778        C  0.11625045  0.79922825  0.20351855    -0.25100
H779        H  0.16850049  0.83033586  0.24575456     0.08800
H780        H  0.12635803  0.82332921  0.23328772     0.12400
H781        H  0.20387408  0.79200536  0.20238862     0.12300
H782        H  0.17683832  0.77525279  0.17914228     0.12100
H783        H  0.13482418  0.76765485  0.16694232     0.12600
H784        H  0.09946670  0.80601785  0.21036134     0.14600
C785        C  0.90135599  0.79494644  0.19207155    -0.05500
C786        C  0.90209016  0.81085954  0.20671305    -0.05400
C787        C  0.87973347  0.81738973  0.21558258    -0.23500
C788        C  0.85612010  0.80812652  0.21003097     0.18700
C789        C  0.85494313  0.79265796  0.19509052     0.15900
C790        C  0.87750786  0.78625576  0.18616913    -0.18600
C791        C  0.83126715  0.78342944  0.18954644    -0.20400
C792        C  0.80909701  0.78891323  0.19897426    -0.13000
C793        C  0.81013748  0.80381698  0.21409189     0.03700
C794        C  0.83376166  0.81369017  0.21937767    -0.25100
H795        H  0.91997161  0.81826793  0.21145616     0.08800
H796        H  0.88097484  0.82943646  0.22693667     0.12400
H797        H  0.87644289  0.77398608  0.17493379     0.12300
H798        H  0.82994237  0.77164076  0.17807292     0.12100
H799        H  0.79115574  0.78117766  0.19452761     0.12600
H800        H  0.83489000  0.82525770  0.23097134     0.14600
C801        C  0.00742695  0.46395068  0.08979952    -0.05500
C802        C  0.01972668  0.48758388  0.08959508    -0.05400
C803        C  0.01732759  0.50379006  0.07531391    -0.23500
C804        C  0.00314627  0.49629286  0.06080406     0.18700
C805        C  0.99109480  0.47230563  0.06078278     0.15900
C806        C  0.99295807  0.45648446  0.07538504    -0.18600
C807        C  0.97772609  0.46436569  0.04605097    -0.20400
C808        C  0.97666705  0.47983948  0.03136320    -0.13000
C809        C  0.98844457  0.50377696  0.03125740     0.03700
C810        C  0.00132391  0.51208999  0.04616902    -0.25100
H811        H  0.03083072  0.49372591  0.10063684     0.08800
H812        H  0.02678773  0.52204331  0.07554188     0.12400
H813        H  0.98366065  0.43812986  0.07539113     0.12300
H814        H  0.96846431  0.44600986  0.04577864     0.12100
H815        H  0.96659794  0.47305680  0.02004018     0.12600
H816        H  0.01073933  0.53038289  0.04615371     0.14600
C817        C  0.43689258  0.07468506  0.02972994    -0.05500
C818        C  0.41648680  0.05763464  0.03068498    -0.05400
C819        C  0.40335936  0.05427260  0.04622824    -0.23500
C820        C  0.40999757  0.06846980  0.06091388     0.18700
C821        C  0.43022826  0.08603985  0.05993663     0.15900
C822        C  0.44386625  0.08864874  0.04445775    -0.18600
C823        C  0.43617896  0.10103611  0.07436673    -0.20400
C824        C  0.42212944  0.09877209  0.08961397    -0.13000
C825        C  0.40233504  0.08104299  0.09083714     0.03700
C826        C  0.39649429  0.06574428  0.07646703    -0.25100
H827        H  0.41088272  0.04671666  0.01943327     0.08800
H828        H  0.38781168  0.04084332  0.04669980     0.12400
H829        H  0.45938212  0.10211528  0.04370280     0.12300
H830        H  0.45151089  0.11470513  0.07380394     0.12100
H831        H  0.42698809  0.11065299  0.10056622     0.12600
H832        H  0.38100532  0.05226383  0.07724522     0.14600
C833        C  0.37273272  0.07064983  0.91682566    -0.05500
C834        C  0.36602985  0.05351545  0.92997239    -0.05400
C835        C  0.37933697  0.05309273  0.94568677    -0.23500
C836        C  0.40001156  0.06939159  0.94841008     0.18700
C837        C  0.40732524  0.08631764  0.93514198     0.15900
C838        C  0.39339809  0.08712700  0.91955949    -0.18600
C839        C  0.42861136  0.10193219  0.93763352    -0.20400
C840        C  0.44255697  0.10071610  0.95308557    -0.13000
C841        C  0.43510389  0.08435245  0.96649967     0.03700
C842        C  0.41365151  0.06884627  0.96409571    -0.25100
H843        H  0.35014958  0.04072855  0.92822196     0.08800
H844        H  0.37355003  0.03989301  0.95567368     0.12400
H845        H  0.39897949  0.10019245  0.90943354     0.12300
H846        H  0.43459386  0.11493795  0.92758454     0.12100
H847        H  0.45895819  0.11290127  0.95466910     0.12600
H848        H  0.40791331  0.05596096  0.97429514     0.14600
C849        C  0.25097176  0.25778647  0.77517703    -0.05500
C850        C  0.23954839  0.23555831  0.76876081    -0.05400
C851        C  0.24536616  0.21173220  0.77599746    -0.23500
C852        C  0.26290690  0.20963493  0.78968581     0.18700
C853        C  0.27467790  0.23180644  0.79611577     0.15900
C854        C  0.26856280  0.25569033  0.78890229    -0.18600
C855        C  0.29242694  0.22971453  0.80963798    -0.20400
C856        C  0.29834638  0.20593093  0.81685159    -0.13000
C857        C  0.28661414  0.18365313  0.81074012     0.03700
C858        C  0.26888029  0.18577286  0.79704044    -0.25100
H859        H  0.22601021  0.23659087  0.75816920     0.08800
H860        H  0.23618788  0.19493323  0.77085072     0.12400
H861        H  0.27774546  0.27261662  0.79387260     0.12300
H862        H  0.30175801  0.24651243  0.81466486     0.12100
H863        H  0.31219405  0.20512993  0.82723028     0.12600
H864        H  0.25953907  0.16898081  0.79208356     0.14600
C865        C  0.22628124  0.39785462  0.72904200    -0.05500
C866        C  0.23076073  0.42070429  0.73801420    -0.05400
C867        C  0.22780524  0.44424837  0.72973501    -0.23500
C868        C  0.22045712  0.44537986  0.71230079     0.18700
C869        C  0.21611894  0.42254795  0.70312001     0.15900
C870        C  0.21898381  0.39898171  0.71153640    -0.18600
C871        C  0.20894083  0.42366890  0.68567489    -0.20400
C872        C  0.20583364  0.44719775  0.67742214    -0.13000
C873        C  0.20984593  0.47014355  0.68643400     0.03700
C874        C  0.21730087  0.46895667  0.70393110    -0.25100
H875        H  0.23643979  0.42039833  0.75148601     0.08800
H876        H  0.23125595  0.46157249  0.73697681     0.12400
H877        H  0.21567991  0.38152140  0.70440233     0.12300
H878        H  0.20564487  0.40633418  0.67840917     0.12100
H879        H  0.20026299  0.44725619  0.66395499     0.12600
H880        H  0.22052354  0.48627964  0.71117668     0.14600
C881        C  0.30625900  0.32066621  0.72795382    -0.05500
C882        C  0.32915511  0.32777193  0.73607478    -0.05400
C883        C  0.35258727  0.32460137  0.72761645    -0.23500
C884        C  0.35351804  0.31434844  0.71086332     0.18700
C885        C  0.33059157  0.30732565  0.70257150     0.15900
C886        C  0.30719781  0.31046877  0.71114299    -0.18600
C887        C  0.33139485  0.29718806  0.68583410    -0.20400
C888        C  0.35472665  0.29375387  0.67741253    -0.13000
C889        C  0.37780958  0.30026903  0.68556274     0.03700
C890        C  0.37696423  0.31081568  0.70231783    -0.25100
H891        H  0.32899015  0.33564007  0.74902523     0.08800
H892        H  0.36996654  0.33010180  0.73419327     0.12400
H893        H  0.28971970  0.30493562  0.70468381     0.12300
H894        H  0.31396715  0.29181264  0.67926009     0.12100
H895        H  0.35451743  0.28588198  0.66449251     0.12600
H896        H  0.39444584  0.31593451  0.70887892     0.14600
C897        C  0.98770485  0.50872507  0.96786899    -0.05500
C898        C  0.00105835  0.51900148  0.95381611    -0.05400
C899        C  0.00153291  0.50642403  0.93790670    -0.23500
C900        C  0.98819998  0.48364978  0.93569560     0.18700
C901        C  0.97391789  0.47362887  0.94958110     0.15900
C902        C  0.97410917  0.48601572  0.96566630    -0.18600
C903        C  0.95972224  0.45140032  0.94711005    -0.20400
C904        C  0.95997113  0.43903386  0.93109045    -0.13000
C905        C  0.97495648  0.44833525  0.91751388     0.03700
C906        C  0.98896585  0.47068694  0.91985082    -0.25100
H907        H  0.01165441  0.53648670  0.95525688     0.08800
H908        H  0.01236725  0.51447668  0.92734920     0.12400
H909        H  0.96346835  0.47817305  0.97639983     0.12300
H910        H  0.94848306  0.44358060  0.95755215     0.12100
H911        H  0.94903209  0.42180546  0.92942932     0.12600
H912        H  0.00023127  0.47808862  0.90926479     0.14600
C913        C  0.16682331  0.33480141  0.77704108    -0.05500
C914        C  0.14501595  0.32376027  0.76962356    -0.05400
C915        C  0.12101348  0.32680565  0.77731998    -0.23500
C916        C  0.11827429  0.34112419  0.79253557     0.18700
C917        C  0.14009639  0.35193610  0.80026594     0.15900
C918        C  0.16420007  0.34863282  0.79254256    -0.18600
C919        C  0.13739362  0.36625731  0.81544844    -0.20400
C920        C  0.11326425  0.37039983  0.82268482    -0.13000
C921        C  0.09121383  0.36027677  0.81494531     0.03700
C922        C  0.09403963  0.34522698  0.79994730    -0.25100
H923        H  0.14645056  0.31286526  0.75775715     0.08800
H924        H  0.10454009  0.31825820  0.77122696     0.12400
H925        H  0.18080409  0.35723615  0.79844471     0.12300
H926        H  0.15391923  0.37460419  0.82160990     0.12100
H927        H  0.11203968  0.38191787  0.83424945     0.12600
H928        H  0.07745671  0.33702015  0.79381171     0.14600
C929        C  0.26598876  0.88351662  0.78534955    -0.05500
C930        C  0.28345366  0.88275316  0.79919051    -0.05400
C931        C  0.28965756  0.90489339  0.80819447    -0.23500
C932        C  0.27847973  0.92832630  0.80360475     0.18700
C933        C  0.26078070  0.92946486  0.78979309     0.15900
C934        C  0.25462598  0.90705742  0.78073027    -0.18600
C935        C  0.24969234  0.95302988  0.78526585    -0.20400
C936        C  0.25618748  0.97520141  0.79427981    -0.13000
C937        C  0.27382700  0.97426266  0.80804413     0.03700
C938        C  0.28485043  0.95061868  0.81260601    -0.25100
H939        H  0.29257645  0.86498406  0.80302439     0.08800
H940        H  0.30328223  0.90367945  0.81873816     0.12400
H941        H  0.24113266  0.90798358  0.77009285     0.12300
H942        H  0.23603070  0.95433181  0.77474920     0.12100
H943        H  0.24718504  0.99304498  0.79052031     0.12600
H944        H  0.29867330  0.94949688  0.82302033     0.14600
C945        C  0.38671817  0.86812800  0.69307892    -0.05500
C946        C  0.36504707  0.88392775  0.69098561    -0.05400
C947        C  0.34212552  0.87815077  0.69924694    -0.23500
C948        C  0.34049136  0.85648116  0.70976487     0.18700
C949        C  0.36208591  0.84029584  0.71180275     0.15900
C950        C  0.38497892  0.84615005  0.70339904    -0.18600
C951        C  0.36056725  0.81877461  0.72247378    -0.20400
C952        C  0.33805878  0.81373106  0.73143396    -0.13000
C953        C  0.31657887  0.82987580  0.72964884     0.03700
C954        C  0.31779055  0.85101003  0.71854486    -0.25100
H955        H  0.36590470  0.90107474  0.68323745     0.08800
H956        H  0.32578545  0.89081581  0.69759536     0.12400
H957        H  0.40142525  0.83361373  0.70497849     0.12300
H958        H  0.37690717  0.80610729  0.72412857     0.12100
H959        H  0.33747122  0.79721103  0.73981940     0.12600
H960        H  0.30134879  0.86363159  0.71715316     0.14600
C961        C  0.24018370  0.75067041  0.73104123    -0.05500
C962        C  0.25467823  0.72863879  0.73495683    -0.05400
C963        C  0.25082324  0.70593188  0.72591654    -0.23500
C964        C  0.23228306  0.70475576  0.71285021     0.18700
C965        C  0.21772300  0.72681981  0.70871212     0.15900
C966        C  0.22182940  0.74963178  0.71776641    -0.18600
C967        C  0.19919601  0.72564622  0.69564445    -0.20400
C968        C  0.19511058  0.70285950  0.68674666    -0.13000
C969        C  0.20940521  0.68075318  0.69076611     0.03700
C970        C  0.22800421  0.68188831  0.70389348    -0.25100
H971        H  0.26908318  0.72894877  0.74502290     0.08800
H972        H  0.26225448  0.68924883  0.72921822     0.12400
H973        H  0.21051603  0.76646496  0.71460836     0.12300
H974        H  0.18779262  0.74234174  0.69233160     0.12100
H975        H  0.18048396  0.70251939  0.67684475     0.12600
H976        H  0.23935081  0.66509432  0.70704860     0.14600
C977        C  0.18754037  0.80305565  0.78725385    -0.05500
C978        C  0.18978328  0.78895540  0.80266184    -0.05400
C979        C  0.16815152  0.78261591  0.81218632    -0.23500
C980        C  0.14380506  0.79012835  0.80644627     0.18700
C981        C  0.14129349  0.80459668  0.79111287     0.15900
C982        C  0.16314875  0.81107214  0.78164880    -0.18600
C983        C  0.11692417  0.81197512  0.78535222    -0.20400
C984        C  0.09522814  0.80466161  0.79449281    -0.13000
C985        C  0.09741570  0.78988282  0.80963632     0.03700
C986        C  0.12193589  0.78300802  0.81564327    -0.25100
H987        H  0.20830756  0.78255533  0.80731464     0.08800
H988        H  0.17045556  0.77154182  0.82392299     0.12400
H989        H  0.16110084  0.82195270  0.76980286     0.12300
H990        H  0.11460318  0.82309280  0.77363517     0.12100
H991        H  0.07675102  0.81031450  0.78942503     0.12600
H992        H  0.12414091  0.77187230  0.82734161     0.14600
C993        C  0.88894218  0.78352900  0.81297470    -0.05500
C994        C  0.86560308  0.77486003  0.81964892    -0.05400
C995        C  0.84247141  0.78093944  0.81144836    -0.23500
C996        C  0.84216930  0.79584967  0.79641215     0.18700
C997        C  0.86544831  0.80470463  0.78959579     0.15900
C998        C  0.88856497  0.79853482  0.79787805    -0.18600
C999        C  0.86527688  0.81961477  0.77457441    -0.20400
C1000       C  0.84224106  0.82581535  0.76640559    -0.13000
C1001       C  0.81888744  0.81720469  0.77306048     0.03700
C1002       C  0.81902584  0.80209258  0.78809186    -0.25100
H1003       H  0.86506892  0.76331879  0.83121732     0.08800
H1004       H  0.82481362  0.77397197  0.81688066     0.12400
H1005       H  0.90617322  0.80548193  0.79242980     0.12300
H1006       H  0.88296372  0.82651566  0.76914153     0.12100
H1007       H  0.84276667  0.83734967  0.75480276     0.12600
H1008       H  0.80119049  0.79525796  0.79334614     0.14600
C1009       C  0.77722106  0.68185071  0.69322309    -0.05500
C1010       C  0.76279860  0.68008060  0.70854015    -0.05400
C1011       C  0.75610333  0.70190011  0.71795848    -0.23500
C1012       C  0.76371430  0.72600866  0.71231609     0.18700
C1013       C  0.77809393  0.72815448  0.69696184     0.15900
C1014       C  0.78471431  0.70613327  0.68752623    -0.18600
C1015       C  0.78577740  0.75230481  0.69136203    -0.20400
C1016       C  0.77961332  0.77408327  0.70101250    -0.13000
C1017       C  0.76556463  0.77214803  0.71642000     0.03700
C1018       C  0.75744921  0.74795952  0.72188586    -0.25100
H1019       H  0.75673097  0.66183348  0.71343203     0.08800
H1020       H  0.74509411  0.69988300  0.72972527     0.12400
H1021       H  0.79570266  0.70804547  0.67576678     0.12300
H1022       H  0.79678424  0.75433370  0.67959945     0.12100
H1023       H  0.78609327  0.79243239  0.69648808     0.12600
H1024       H  0.74661456  0.74610335  0.73374440     0.14600
C1025       C  0.68627155  0.85284436  0.72031044    -0.05500
C1026       C  0.68694495  0.87084103  0.70684262    -0.05400
C1027       C  0.66486743  0.87703389  0.69753350    -0.23500
C1028       C  0.64169553  0.86534120  0.70151012     0.18700
C1029       C  0.64078248  0.84716403  0.71496328     0.15900
C1030       C  0.66303799  0.84105847  0.72429696    -0.18600
C1031       C  0.61759270  0.83547929  0.71889295    -0.20400
C1032       C  0.59541688  0.84202582  0.70975933    -0.13000
C1033       C  0.59597673  0.86041305  0.69651475     0.03700
C1034       C  0.61939033  0.87176311  0.69236414    -0.25100
H1035       H  0.70456681  0.88023969  0.70350271     0.08800
H1036       H  0.66591029  0.89102796  0.68725943     0.12400
H1037       H  0.66224551  0.82711947  0.73462320     0.12300
H1038       H  0.61655585  0.82139835  0.72911157     0.12100
H1039       H  0.57784695  0.83268995  0.71320351     0.12600
H1040       H  0.62035517  0.88596841  0.68225326     0.14600
C1041       C  0.78883239  0.35754731  0.78311597    -0.05500
C1042       C  0.78973646  0.37855683  0.79439358    -0.05400
C1043       C  0.81234795  0.38453188  0.80304085    -0.23500
C1044       C  0.83438225  0.36945824  0.80067597     0.18700
C1045       C  0.83356416  0.34810374  0.78952790     0.15900
C1046       C  0.81083391  0.34230112  0.78083065    -0.18600
C1047       C  0.85556634  0.33302001  0.78714981    -0.20400
C1048       C  0.87825321  0.33909590  0.79564441    -0.13000
C1049       C  0.87929634  0.36022494  0.80678244     0.03700
C1050       C  0.85721829  0.37535771  0.80924349    -0.25100
H1051       H  0.77306417  0.39067251  0.79628977     0.08800
H1052       H  0.81262536  0.40099705  0.81151705     0.12400
H1053       H  0.81031146  0.32596668  0.77223622     0.12300
H1054       H  0.85524378  0.31652932  0.77870123     0.12100
H1055       H  0.89490315  0.32699060  0.79368701     0.12600
H1056       H  0.85783636  0.39186064  0.81767557     0.14600
C1057       C  0.73746028  0.40755535  0.72625871    -0.05500
C1058       C  0.72465235  0.43053178  0.73021560    -0.05400
C1059       C  0.72947333  0.45263607  0.72082337    -0.23500
C1060       C  0.74734354  0.45225682  0.70736326     0.18700
C1061       C  0.76028788  0.42928657  0.70316190     0.15900
C1062       C  0.75519983  0.40703010  0.71258841    -0.18600
C1063       C  0.77824958  0.42909408  0.68972030    -0.20400
C1064       C  0.78361965  0.45154571  0.68072554    -0.13000
C1065       C  0.77110744  0.47460247  0.68498993     0.03700
C1066       C  0.75268463  0.47461031  0.69821478    -0.25100
H1067       H  0.71084461  0.43146408  0.74061616     0.08800
H1068       H  0.71936743  0.47010192  0.72419653     0.12400
H1069       H  0.76526726  0.38944989  0.70941938     0.12300
H1070       H  0.78837621  0.41166152  0.68630284     0.12100
H1071       H  0.79795833  0.45087555  0.67067427     0.12600
H1072       H  0.74252336  0.49202681  0.70155747     0.14600
C1073       C  0.65772063  0.32930195  0.72777921    -0.05500
C1074       C  0.63489321  0.34215381  0.73214532    -0.05400
C1075       C  0.61210249  0.33654263  0.72366339    -0.23500
C1076       C  0.61166598  0.31782045  0.71074440     0.18700
C1077       C  0.63448034  0.30482592  0.70618168     0.15900
C1078       C  0.65739974  0.31073686  0.71464854    -0.18600
C1079       C  0.63391014  0.28596788  0.69335114    -0.20400
C1080       C  0.61093193  0.27998124  0.68515528    -0.13000
C1081       C  0.58806887  0.29280163  0.68957763     0.03700
C1082       C  0.58871949  0.31180808  0.70241515    -0.25100
H1083       H  0.63460293  0.35655223  0.74219091     0.08800
H1084       H  0.59477755  0.34670240  0.72731607     0.12400
H1085       H  0.67483758  0.30058304  0.71121941     0.12300
H1086       H  0.65120588  0.27575182  0.68970825     0.12100
H1087       H  0.61119825  0.26519609  0.67540759     0.12600
H1088       H  0.57146638  0.32205870  0.70601091     0.14600
C1089       C  0.70652804  0.18832167  0.80594826    -0.05500
C1090       C  0.71900050  0.18743845  0.78985982    -0.05400
C1091       C  0.72262242  0.20959041  0.78033299    -0.23500
C1092       C  0.71385580  0.23306289  0.78670571     0.18700
C1093       C  0.70104856  0.23426979  0.80275488     0.15900
C1094       C  0.69746460  0.21188307  0.81229015    -0.18600
C1095       C  0.69221083  0.25787877  0.80901263    -0.20400
C1096       C  0.69635885  0.28012179  0.79953174    -0.13000
C1097       C  0.70942928  0.27905593  0.78368041     0.03700
C1098       C  0.71791014  0.25536217  0.77729893    -0.25100
H1099       H  0.72585182  0.16962298  0.78444319     0.08800
H1100       H  0.73234152  0.20835771  0.76799107     0.12400
H1101       H  0.68789518  0.21294295  0.82467628     0.12300
H1102       H  0.68225687  0.25915960  0.82126178     0.12100
H1103       H  0.68952587  0.29816297  0.80467694     0.12600
H1104       H  0.72785063  0.25421639  0.76502836     0.14600
C1105       C  0.73144849  0.98367028  0.80790131    -0.05500
C1106       C  0.75120713  0.98519515  0.79564641    -0.05400
C1107       C  0.75790021  0.96408811  0.78552228    -0.23500
C1108       C  0.74494260  0.94105375  0.78744684     0.18700
C1109       C  0.72544157  0.93915465  0.79998918     0.15900
C1110       C  0.71889901  0.96038381  0.81015278    -0.18600
C1111       C  0.71249668  0.91614772  0.80198614    -0.20400
C1112       C  0.71866005  0.89524079  0.79156938    -0.13000
C1113       C  0.73779898  0.89695177  0.77888912     0.03700
C1114       C  0.75095560  0.91997781  0.77693820    -0.25100
H1115       H  0.76148377  0.00274686  0.79377317     0.08800
H1116       H  0.77302837  0.96586792  0.77606655     0.12400
H1117       H  0.70354220  0.95885678  0.81944448     0.12300
H1118       H  0.69747966  0.91436220  0.81152396     0.12100
H1119       H  0.70814261  0.87777650  0.79330152     0.12600
H1120       H  0.76580381  0.92152427  0.76725180     0.14600
C1121       C  0.13444477  0.57871781  0.57652377    -0.05500
C1122       C  0.14065449  0.56068271  0.56372053    -0.05400
C1123       C  0.12676636  0.55974362  0.54829119    -0.23500
C1124       C  0.10602703  0.57644860  0.54557860     0.18700
C1125       C  0.09930122  0.59435292  0.55853762     0.15900
C1126       C  0.11383762  0.59568193  0.57379233    -0.18600
C1127       C  0.07789697  0.61032401  0.55612730    -0.20400
C1128       C  0.06325445  0.60851480  0.54105152    -0.13000
C1129       C  0.07014083  0.59119028  0.52795843     0.03700
C1130       C  0.09169010  0.57531536  0.53023752    -0.25100
H1131       H  0.15645606  0.54742927  0.56558773     0.08800
H1132       H  0.13207170  0.54577498  0.53856762     0.12400
H1133       H  0.10863360  0.60934172  0.58374633     0.12300
H1134       H  0.07234371  0.62402864  0.56595985     0.12100
H1135       H  0.04671395  0.62093668  0.53949643     0.12600
H1136       H  0.09688635  0.56167095  0.52026464     0.14600
C1137       C  0.12739320  0.56757413  0.41552586    -0.05500
C1138       C  0.13701549  0.55368392  0.42967309    -0.05400
C1139       C  0.12392487  0.55370054  0.44544546    -0.23500
C1140       C  0.10069458  0.56713907  0.44717062     0.18700
C1141       C  0.09018729  0.57994994  0.43267606     0.15900
C1142       C  0.10376866  0.58038735  0.41703660    -0.18600
C1143       C  0.06647374  0.59248693  0.43415297    -0.20400
C1144       C  0.05368418  0.59311757  0.44999815    -0.13000
C1145       C  0.06458336  0.58166382  0.46473572     0.03700
C1146       C  0.08799718  0.56836504  0.46317317    -0.25100
H1147       H  0.15513805  0.54358179  0.42870636     0.08800
H1148       H  0.13212250  0.54349537  0.45634100     0.12400
H1149       H  0.09601402  0.59073486  0.40604355     0.12300
H1150       H  0.05798750  0.60211966  0.42311848     0.12100
H1151       H  0.03563715  0.60337708  0.45086511     0.12600
H1152       H  0.09635552  0.55910170  0.47440383     0.14600
C1153       C  0.48468821  0.20376781  0.58180833    -0.05500
C1154       C  0.46795820  0.21054788  0.56830387    -0.05400
C1155       C  0.46910225  0.19772775  0.55246169    -0.23500
C1156       C  0.48660601  0.17756396  0.55005606     0.18700
C1157       C  0.50302701  0.17022201  0.56377324     0.15900
C1158       C  0.50218619  0.18358460  0.57944649    -0.18600
C1159       C  0.51985670  0.14946369  0.56165676    -0.20400
C1160       C  0.52025706  0.13589342  0.54613592    -0.13000
C1161       C  0.50431977  0.14327457  0.53236824     0.03700
C1162       C  0.48772969  0.16433599  0.53429802    -0.25100
H1163       H  0.45437160  0.22611971  0.56988061     0.08800
H1164       H  0.45624442  0.20349013  0.54213909     0.12400
H1165       H  0.51485583  0.17798611  0.58992345     0.12300
H1166       H  0.53247290  0.14353426  0.57207226     0.12100
H1167       H  0.53317406  0.11970697  0.54481890     0.12600
H1168       H  0.47515564  0.16986504  0.52374665     0.14600
C1169       C  0.51335125  0.19998045  0.41861452    -0.05500
C1170       C  0.52859421  0.20901498  0.43218823    -0.05400
C1171       C  0.52858409  0.19687269  0.44823469    -0.23500
C1172       C  0.51390831  0.17503273  0.45077907     0.18700
C1173       C  0.49903066  0.16534848  0.43702276     0.15900
C1174       C  0.49843214  0.17822826  0.42110516    -0.18600
C1175       C  0.48536026  0.14277013  0.43938768    -0.20400
C1176       C  0.48643660  0.12992151  0.45522998    -0.13000
C1177       C  0.50057551  0.13987089  0.46906974     0.03700
C1178       C  0.51416090  0.16251905  0.46678160    -0.25100
H1179       H  0.54023763  0.22574304  0.43043347     0.08800
H1180       H  0.54025978  0.20440006  0.45859361     0.12400
H1181       H  0.48698707  0.17097515  0.41052672     0.12300
H1182       H  0.47405256  0.13493258  0.42894983     0.08100
H1183       H  0.47589715  0.11243169  0.45677916     0.12600
H1184       H  0.52546440  0.17003880  0.47734738     0.14600
C1185       C  0.51580527  0.00935203  0.53550606    -0.05500
C1186       C  0.53268085  0.98851959  0.53748904    -0.05400
C1187       C  0.53324452  0.97455512  0.55286866    -0.23500
C1188       C  0.51637076  0.98071761  0.56633887     0.18700
C1189       C  0.49908343  0.00149048  0.56439332     0.15900
C1190       C  0.49931711  0.01603892  0.54913759    -0.18600
C1191       C  0.48138478  0.00687629  0.57753792    -0.20400
C1192       C  0.48058384  0.99163258  0.59234804    -0.13000
C1193       C  0.49795003  0.97126075  0.59449525     0.03700
C1194       C  0.51604719  0.96608189  0.58153575    -0.25100
H1195       H  0.54548523  0.98306086  0.52709883     0.08800
H1196       H  0.54649394  0.95860471  0.55408046     0.12400
H1197       H  0.48594587  0.03183675  0.54756511     0.12300
H1198       H  0.46788351  0.02259712  0.57623500     0.12100
H1199       H  0.46655815  0.99592560  0.60224606     0.12600
H1200       H  0.52926452  0.95013916  0.58303167     0.14600
C1201       C  0.50250388  0.96955002  0.41225381    -0.05500
C1202       C  0.48431267  0.98931627  0.41401815    -0.05400
C1203       C  0.48322933  0.00391388  0.42914879    -0.23500
C1204       C  0.49998427  0.99859859  0.44289840     0.18700
C1205       C  0.51792416  0.97833717  0.44138032     0.15900
C1206       C  0.51931313  0.96422184  0.42599859    -0.18600
C1207       C  0.53402705  0.97233087  0.45534303    -0.20400
C1208       C  0.53238781  0.98627181  0.47069337    -0.13000
C1209       C  0.51509334  0.00681000  0.47217016     0.03700
C1210       C  0.49897968  0.01300449  0.45819505    -0.25100
H1211       H  0.47116711  0.99374202  0.40357951     0.08800
H1212       H  0.46922687  0.01923722  0.43013034     0.12400
H1213       H  0.53308448  0.94870716  0.42488802     0.12300
H1214       H  0.54775839  0.95675967  0.45443198     0.12100
H1215       H  0.54494818  0.98126704  0.48134927     0.12600
H1216       H  0.48533712  0.02863620  0.45938084     0.14600
C1217       C  0.93568366  0.58948609  0.53324285    -0.05500
C1218       C  0.94724633  0.60115449  0.54760550    -0.05400
C1219       C  0.93480094  0.60216496  0.56363078    -0.23500
C1220       C  0.91071325  0.59111243  0.56571949     0.18700
C1221       C  0.89924266  0.57870611  0.55148974     0.15900
C1222       C  0.91157906  0.57829789  0.53534190    -0.18600
C1223       C  0.87565679  0.56675201  0.55366567    -0.20400
C1224       C  0.86349638  0.56711519  0.56974055    -0.13000
C1225       C  0.87427725  0.58001129  0.58384494     0.03700
C1226       C  0.89792572  0.59209828  0.58176026    -0.25100
H1227       H  0.96579018  0.60990155  0.54638291     0.08800
H1228       H  0.94404763  0.61155671  0.57439697     0.12400
H1229       H  0.90255098  0.56892560  0.52447098     0.12300
H1230       H  0.86665969  0.55699301  0.54295167     0.12100
H1231       H  0.84532008  0.55767203  0.57109083     0.12600
H1232       H  0.90653036  0.60176445  0.59266942     0.14600
C1233       C  0.93162849  0.58157546  0.46976947    -0.05500
C1234       C  0.91464765  0.56116771  0.46871458    -0.05400
C1235       C  0.90097700  0.55668827  0.45350219    -0.23500
C1236       C  0.90355011  0.57300835  0.43926639     0.18700
C1237       C  0.92032828  0.59388597  0.44030366     0.15900
C1238       C  0.93466075  0.59775242  0.45545691    -0.18600
C1239       C  0.92220487  0.61065095  0.42624717    -0.20400
C1240       C  0.90748044  0.60685678  0.41136183    -0.13000
C1241       C  0.89098281  0.58596315  0.41012384     0.03700
C1242       C  0.88930937  0.56899451  0.42412868    -0.25100
H1243       H  0.91231892  0.54840911  0.47959535     0.08800
H1244       H  0.88818971  0.54061862  0.45293530     0.12400
H1245       H  0.94772395  0.61359817  0.45628358     0.12300
H1246       H  0.93487925  0.62681268  0.42682064     0.12100
H1247       H  0.90926273  0.62012826  0.40072841     0.12600
H1248       H  0.87642804  0.55301029  0.42345340     0.14600
C1249       C  0.56695110  0.09366890  0.96490397    -0.05500
C1250       C  0.55563889  0.10772564  0.95141130    -0.05400
C1251       C  0.56688710  0.10815220  0.93507446    -0.23500
C1252       C  0.58923017  0.09393003  0.93189488     0.18700
C1253       C  0.60049688  0.07937400  0.94536624     0.15900
C1254       C  0.58957108  0.07976414  0.96188457    -0.18600
C1255       C  0.62222749  0.06431331  0.94200484    -0.20400
C1256       C  0.63274199  0.06371097  0.92544707    -0.13000
C1257       C  0.62205922  0.07862171  0.91215189     0.03700
C1258       C  0.60035108  0.09378701  0.91543599    -0.25100
H1259       H  0.53811845  0.11848246  0.95354932     0.08800
H1260       H  0.55791937  0.11927184  0.92487958     0.12400
H1261       H  0.59810085  0.06853060  0.97220735     0.12300
H1262       H  0.63100404  0.05293157  0.95214220     0.12100
H1263       H  0.64964386  0.05208266  0.92313693     0.12600
H1264       H  0.59194871  0.10513698  0.90512551     0.14600
C1265       C  0.57226821  0.08795834  0.02813193    -0.05500
C1266       C  0.59626957  0.09972407  0.02829230    -0.05400
C1267       C  0.61137216  0.09955107  0.04317850    -0.23500
C1268       C  0.60299945  0.08718161  0.05813131     0.18700
C1269       C  0.57915181  0.07477920  0.05807770     0.15900
C1270       C  0.56374356  0.07556279  0.04314548    -0.18600
C1271       C  0.57129630  0.06164988  0.07292175    -0.20400
C1272       C  0.58691591  0.06083340  0.08763530    -0.13000
C1273       C  0.61031240  0.07363955  0.08787933     0.03700
C1274       C  0.61819644  0.08686913  0.07309061    -0.25100
H1275       H  0.60326134  0.10943673  0.01692056     0.08800
H1276       H  0.62966401  0.10900499  0.04296389     0.12400
H1277       H  0.54541725  0.06615602  0.04309991     0.12300
H1278       H  0.55316635  0.05190596  0.07311861     0.12100
H1279       H  0.58052219  0.05056980  0.09894623     0.12600
H1280       H  0.63642366  0.09647480  0.07311464     0.14600
C1281       C  0.99141819  0.64210202  0.97188240    -0.05500
C1282       C  0.97658489  0.66460481  0.97139070    -0.05400
C1283       C  0.97492693  0.67906013  0.95628366    -0.23500
C1284       C  0.98863283  0.67159266  0.94154924     0.18700
C1285       C  0.00425642  0.64937956  0.94206801     0.15900
C1286       C  0.00516015  0.63448285  0.95714722    -0.18600
C1287       C  0.01886705  0.64262617  0.92754433    -0.20400
C1288       C  0.01795018  0.65770792  0.91264908    -0.13000
C1289       C  0.00186985  0.67929535  0.91189588     0.03700
C1290       C  0.98715998  0.68610362  0.92635845    -0.25100
H1291       H  0.96584525  0.67076158  0.98263925     0.08800
H1292       H  0.96305202  0.69613857  0.95615686     0.12400
H1293       H  0.01691647  0.61731878  0.95755683     0.12300
H1294       H  0.03111076  0.62581264  0.92774812     0.12100
H1295       H  0.02943227  0.65225312  0.90157755     0.12600
H1296       H  0.97504056  0.70301794  0.92589997     0.14600
C1297       C  0.99107816  0.63862913  0.03490706    -0.05500
C1298       C  0.97554777  0.63035980  0.04851326    -0.05400
C1299       C  0.97402152  0.64443855  0.06385116    -0.23500
C1300       C  0.98854920  0.66655551  0.06589926     0.18700
C1301       C  0.00492602  0.67437341  0.05241974     0.15900
C1302       C  0.00574474  0.66060579  0.03694273    -0.18600
C1303       C  0.02033209  0.69576630  0.05465477    -0.20400
C1304       C  0.01962675  0.70930568  0.07015674    -0.13000
C1305       C  0.00300215  0.70209347  0.08343534     0.03700
C1306       C  0.98728472  0.68084353  0.08122454    -0.25100
H1307       H  0.96407621  0.61344001  0.04707639     0.08800
H1308       H  0.96154900  0.63803109  0.07409524     0.12400
H1309       H  0.01800816  0.66682426  0.02650719     0.12300
H1310       H  0.03309745  0.70187077  0.04448744     0.12100
H1311       H  0.03185701  0.72566022  0.07171646     0.12600
H1312       H  0.97471917  0.67504407  0.09160012     0.14600
loop_ 
_geom_bond_atom_site_label_1 
_geom_bond_atom_site_label_2 
_geom_bond_distance 
_geom_bond_site_symmetry_2 
_ccdc_geom_bond_type 
C1            N2   1.354   1_556  A
C1            N6   1.358       .  A
C1         C1281   1.473       .  S
N2            C3   1.355       .  A
C3            N4   1.357       .  A
C3         C1297   1.468       .  S
N4            C5   1.359       .  A
C5            N6   1.361   1_554  A
C5          C293   1.468       .  S
C7            N8   1.359   1_554  A
C7           N12   1.363       .  A
C7         C1265   1.481       .  S
N8            C9   1.356       .  A
C9           N10   1.353       .  A
C9         C1249   1.468       .  S
N10          C11   1.354       .  A
C11          N12   1.363   1_556  A
C11         C287   1.470       .  S
C13          N14   1.356       .  A
C13          N18   1.360       .  A
C13        C1233   1.472       .  S
N14          C15   1.357       .  A
C15          N16   1.361       .  A
C15          C33   1.472   1_655  S
N16          C17   1.362       .  A
C17          N18   1.361       .  A
C17        C1217   1.488       .  S
C19          N20   1.360       .  A
C19          N24   1.358       .  A
C19        C1185   1.476       .  S
N20          C21   1.361       .  A
C21          N22   1.357       .  A
C21          C29   1.468       .  S
N22          C23   1.357       .  A
C23          N24   1.357       .  A
C23        C1209   1.472       .  S
C25          N26   1.357       .  A
C25          N30   1.357       .  A
C25        C1161   1.470       .  S
N26          C27   1.358       .  A
C27          N28   1.359       .  A
C27        C1177   1.474       .  S
N28          C29   1.360       .  A
C29          N30   1.357       .  A
C31          N32   1.360       .  A
C31          N36   1.360       .  A
C31        C1145   1.481       .  S
N32          C33   1.360       .  A
C33          N34   1.357       .  A
N34          C35   1.359       .  A
C35          N36   1.360       .  A
C35        C1129   1.475       .  S
N37          C41   1.338       .  A
N37          N38   1.319       .  A
N37         Cu45   2.051       .  S
N38          C39   1.344       .  A
N38         Cu44   2.062       .  S
C39          C40   1.387       .  A
C39          H42   1.081       .  S
C40        C1089   1.477       .  S
C40          C41   1.383       .  A
C41          H43   1.081       .  S
Cu44         N47   2.063       .  S
Cu45         N55   2.052       .  S
Cu46         N48   2.069       .  S
Cu46         N54   2.069       .  S
N47          C51   1.343       .  A
N47          N48   1.323       .  A
N48          C49   1.343       .  A
C49          C50   1.381       .  A
C49          H52   1.082       .  S
C50        C1257   1.468       .  S
C50          C51   1.381       .  A
C51          H53   1.082       .  S
N54          C58   1.344       .  A
N54          N55   1.319       .  A
N55          C56   1.341       .  A
C56          C57   1.384       .  A
C56          H59   1.081       .  S
C57        C1105   1.481   1_545  S
C57          C58   1.389       .  A
C58          H60   1.081   1_545  S
O61         Cu69   2.009       .  S
O61          C71   1.278       .  A
O62         Cu69   2.008       .  S
O62          C72   1.279       .  A
O63         Cu69   1.991       .  S
O63          C73   1.277       .  A
O64         Cu69   2.004       .  S
O64          C74   1.277       .  A
O65         Cu70   2.004       .  S
O65          C74   1.279       .  A
O66         Cu70   2.007       .  S
O66          C73   1.278       .  A
O67         Cu70   2.003       .  S
O67          C72   1.277       .  A
O68         Cu70   1.999       .  S
O68          C71   1.277       .  A
Cu69        Cu70   2.372       .  S
C71        C1073   1.478       .  S
C72        C1041   1.477       .  S
C73        C1097   1.474       .  S
C74        C1057   1.479       .  S
O75         Cu83   2.019       .  S
O75          C85   1.280       .  A
O76         Cu83   2.019       .  S
O76          C86   1.280       .  A
O77         Cu83   1.996       .  S
O77          C87   1.277       .  A
O78         Cu83   1.996       .  S
O78          C88   1.277       .  A
O79         Cu84   2.018       .  S
O79          C88   1.280       .  A
O80         Cu84   2.013       .  S
O80          C87   1.279       .  A
O81         Cu84   1.999       .  S
O81          C86   1.277       .  A
O82         Cu84   1.998       .  S
O82          C85   1.277       .  A
Cu83        Cu84   2.371       .  S
C85        C1113   1.479       .  S
C86        C1017   1.483       .  S
C87        C1025   1.478       .  S
C88        C1001   1.481       .  S
N89          C93   1.342       .  A
N89          N90   1.319       .  A
N89         Cu97   2.064       .  S
N90          C91   1.346       .  A
N90         Cu96   2.075       .  S
C91          C92   1.391       .  A
C91          H94   1.081       .  S
C92         C993   1.489       .  S
C92          C93   1.388       .  A
C93          H95   1.080       .  S
Cu96         N99   2.076       .  S
Cu97        N107   2.064   1_655  S
Cu98        N100   2.074       .  S
Cu98        N106   2.074       .  S
N99         C103   1.344       .  A
N99         N100   1.324   1_655  A
N100        C101   1.345       .  A
C101        C102   1.382       .  A
C101        H104   1.082       .  S
C102       C1289   1.472       .  S
C102        C103   1.382   1_455  A
C103        H105   1.082       .  S
N106        C110   1.345       .  A
N106        N107   1.320       .  A
N107        C108   1.342       .  A
C108        C109   1.386       .  A
C108        H111   1.081       .  S
C109        C985   1.486       .  S
C109        C110   1.391       .  A
C110        H112   1.081       .  S
O113       Cu121   2.011       .  S
O113        C123   1.279       .  A
O114       Cu121   2.013       .  S
O114        C124   1.279       .  A
O115       Cu121   2.018       .  S
O115        C125   1.279       .  A
O116       Cu121   2.017       .  S
O116        C126   1.280       .  A
O117       Cu122   2.001       .  S
O117        C126   1.277       .  A
O118       Cu122   2.006       .  S
O118        C125   1.279       .  A
O119       Cu122   2.001       .  S
O119        C124   1.278       .  A
O120       Cu122   1.998       .  S
O120        C123   1.277       .  A
Cu121      Cu122   2.371       .  S
C123        C953   1.475       .  S
C124        C977   1.481       .  S
C125        C929   1.484       .  S
C126        C961   1.481       .  S
N127        C131   1.345       .  A
N127        N128   1.322       .  A
N127       Cu135   2.082       .  S
N128        C129   1.343       .  A
N128       Cu134   2.064       .  S
C129        C130   1.383       .  A
C129        H132   1.082       .  S
C130       C1049   1.479       .  S
C130        C131   1.387       .  A
C131        H133   1.082       .  S
Cu134       N137   2.063       .  S
Cu135       N145   2.082   1_655  S
Cu136       N138   2.073   1_455  S
Cu136       N144   2.074       .  S
N137        C141   1.344       .  A
N137        N138   1.321       .  A
N138        C139   1.344       .  A
C139        C140   1.383       .  A
C139        H142   1.082   1_655  S
C140        C905   1.470       .  S
C140        C141   1.381       .  A
C141        H143   1.082       .  S
N144        C148   1.343       .  A
N144        N145   1.321       .  A
N145        C146   1.347       .  A
C146        C147   1.391       .  A
C146        H149   1.081       .  S
C147        C921   1.491       .  S
C147        C148   1.389       .  A
C148        H150   1.080       .  S
O151       Cu159   2.012       .  S
O151        C161   1.279       .  A
O152       Cu159   2.010       .  S
O152        C162   1.279       .  A
O153       Cu159   2.001       .  S
O153        C163   1.278       .  A
O154       Cu159   2.006       .  S
O154        C164   1.278       .  A
O155       Cu160   2.019       .  S
O155        C164   1.280       .  A
O156       Cu160   2.014       .  S
O156        C163   1.279       .  A
O157       Cu160   2.011       .  S
O157        C162   1.278       .  A
O158       Cu160   2.011       .  S
O158        C161   1.279       .  A
Cu159      Cu160   2.370       .  S
C161        C849   1.483       .  S
C162        C865   1.481       .  S
C163        C881   1.481       .  S
C164        C913   1.484       .  S
N165        C169   1.345       .  A
N165        N166   1.322       .  A
N165       Cu173   2.070       .  S
N166        C167   1.346   1_545  A
N166       Cu172   2.091       .  S
C167        C168   1.390       .  A
C167        H170   1.081       .  S
C168        C937   1.488       .  S
C168        C169   1.386   1_565  A
C169        H171   1.081       .  S
Cu172       N175   2.091       .  S
Cu173       N183   2.070       .  S
Cu174       N176   2.084       .  S
Cu174       N182   2.084       .  S
N175        C179   1.349       .  A
N175        N176   1.323       .  A
N176        C177   1.346       .  A
C177        C178   1.385       .  A
C177        H180   1.082       .  S
C178        C833   1.486       .  S
C178        C179   1.389       .  A
C179        H181   1.082       .  S
N182        C186   1.346       .  A
N182        N183   1.320       .  A
N183        C184   1.345       .  A
C184        C185   1.389       .  A
C184        H187   1.081       .  S
C185        C857   1.491       .  S
C185        C186   1.392       .  A
C186        H188   1.081       .  S
N189        C193   1.346       .  A
N189        N190   1.322       .  A
N189       Cu197   2.075       .  S
N190        C191   1.344       .  A
N190       Cu196   2.079       .  S
C191        C192   1.387       .  A
C191        H194   1.082       .  S
C192        C969   1.484       .  S
C192        C193   1.387       .  A
C193        H195   1.082       .  S
Cu196       N199   2.079       .  S
Cu197       N207   2.075       .  S
Cu198       N200   2.068       .  S
Cu198       N206   2.068       .  S
N199        C203   1.346       .  A
N199        N200   1.322       .  A
N200        C201   1.343       .  A
C201        C202   1.383       .  A
C201        H204   1.082       .  S
C202       C1121   1.477       .  S
C202        C203   1.386       .  A
C203        H205   1.082       .  S
N206        C210   1.344       .  A
N206        N207   1.320       .  A
N207        C208   1.344       .  A
C208        C209   1.389       .  A
C208        H211   1.081       .  S
C209        C873   1.488       .  S
C209        C210   1.389       .  A
C210        H212   1.081       .  S
N213        C217   1.342       .  A
N213        N214   1.321       .  A
N213       Cu221   2.071       .  S
N214        C215   1.344       .  A
N214       Cu220   2.070       .  S
C215        C216   1.388       .  A
C215        H218   1.081       .  S
C216       C1081   1.485       .  S
C216        C217   1.388       .  A
C217        H219   1.081       .  S
Cu220       N223   2.069       .  S
Cu221       N231   2.071       .  S
Cu222       N224   2.066       .  S
Cu222       N230   2.066       .  S
N223        C227   1.343       .  A
N223        N224   1.321       .  A
N224        C225   1.345       .  A
C225        C226   1.383       .  A
C225        H228   1.082       .  S
C226       C1153   1.474       .  S
C226        C227   1.384       .  A
C227        H229   1.082       .  S
N230        C234   1.342       .  A
N230        N231   1.320       .  A
N231        C232   1.345       .  A
C232        C233   1.389       .  A
C232        H235   1.081       .  S
C233        C889   1.486       .  S
C233        C234   1.387       .  A
C234        H236   1.081       .  S
N237        C241   1.343       .  A
N237        N238   1.320       .  A
N237       Cu245   2.063       .  S
N238        C239   1.343       .  A
N238       Cu244   2.071       .  S
C239        C240   1.389       .  A
C239        H242   1.081       .  S
C240       C1033   1.485       .  S
C240        C241   1.387       .  A
C241        H243   1.081       .  S
Cu244       N247   2.072       .  S
Cu245       N255   2.064       .  S
Cu246       N248   2.077       .  S
Cu246       N254   2.076       .  S
N247        C251   1.345       .  A
N247        N248   1.323       .  A
N248        C249   1.345       .  A
C249        C250   1.384       .  A
C249        H252   1.082       .  S
C250       C1193   1.475       .  S
C250        C251   1.383       .  A
C251        H253   1.082       .  S
N254        C258   1.345       .  A
N254        N255   1.321       .  A
N255        C256   1.342       .  A
C256        C257   1.384       .  A
C256        H259   1.082       .  S
C257        C945   1.480       .  S
C257        C258   1.387       .  A
C258        H260   1.082       .  S
N261        C265   1.343       .  A
N261        N262   1.321       .  A
N261       Cu269   2.062       .  S
N262        C263   1.348       .  A
N262       Cu268   2.099       .  S
C263        C264   1.393       .  A
C263        H266   1.081       .  S
C264       C1009   1.491       .  S
C264        C265   1.386       .  A
C265        H267   1.081       .  S
Cu268       N271   2.100       .  S
Cu269       N279   2.061       .  S
Cu270       N272   2.081       .  S
Cu270       N278   2.080       .  S
N271        C275   1.351       .  A
N271        N272   1.324       .  A
N272        C273   1.345       .  A
C273        C274   1.383       .  A
C273        H276   1.082       .  S
C274       C1225   1.482       .  S
C274        C275   1.388       .  A
C275        H277   1.082       .  S
N278        C282   1.347       .  A
N278        N279   1.319       .  A
N279        C280   1.342       .  A
C280        C281   1.387       .  A
C280        H283   1.081       .  S
C281       C1065   1.486       .  S
C281        C282   1.390       .  A
C282        H284   1.081       .  S
C285        N286   1.359       .  A
C285        N290   1.360   1_554  A
C285        C817   1.472       .  S
N286        C287   1.356   1_554  A
C287        N288   1.361       .  A
N288        C289   1.359       .  A
C289        N290   1.359       .  A
C289        C841   1.482       .  S
C291        N292   1.357       .  A
C291        N296   1.358       .  A
C291        C897   1.474       .  S
N292        C293   1.357   1_556  A
C293        N294   1.360       .  A
N294        C295   1.360       .  A
C295        N296   1.359   1_554  A
C295        C809   1.479       .  S
N297        C301   1.344       .  A
N297        N298   1.322       .  A
N297       Cu305   2.085   1_655  S
N298        C299   1.345       .  A
N298       Cu304   2.070       .  S
C299        C300   1.387       .  A
C299        H302   1.081       .  S
C300        C785   1.487       .  S
C300        C301   1.389       .  A
C301        H303   1.081       .  S
Cu304       N307   2.069       .  S
Cu305       N315   2.085       .  S
Cu306       N308   2.058       .  S
Cu306       N314   2.059       .  S
N307        C311   1.345       .  A
N307        N308   1.321   1_655  A
N308        C309   1.341       .  A
C309        C310   1.380       .  A
C309        H312   1.082       .  S
C310       C1305   1.468       .  S
C310        C311   1.383   1_455  A
C311        H313   1.082       .  S
N314        C318   1.341       .  A
N314        N315   1.320       .  A
N315        C316   1.347       .  A
C316        C317   1.393       .  A
C316        H319   1.081       .  S
C317        C777   1.489       .  S
C317        C318   1.386       .  A
C318        H320   1.081       .  S
O321       Cu329   2.022       .  S
O321        C331   1.280       .  A
O322       Cu329   2.025       .  S
O322        C332   1.280       .  A
O323       Cu329   2.010       .  S
O323        C333   1.278       .  A
O324       Cu329   2.010       .  S
O324        C334   1.278       .  A
O325       Cu330   2.000       .  S
O325        C334   1.277       .  A
O326       Cu330   2.001       .  S
O326        C333   1.278       .  A
O327       Cu330   1.998       .  S
O327        C332   1.277       .  A
O328       Cu330   2.005       .  S
O328        C331   1.277       .  A
Cu329      Cu330   2.370       .  S
C331        C737   1.485       .  S
C332        C769   1.484       .  S
C333        C729   1.480       .  S
C334        C753   1.478       .  S
O335       Cu343   2.014       .  S
O335        C345   1.279       .  A
O336       Cu343   2.017       .  S
O336        C346   1.279       .  A
O337       Cu343   2.003       .  S
O337        C347   1.277       .  A
O338       Cu343   1.999       .  S
O338        C348   1.278       .  A
O339       Cu344   2.019       .  S
O339        C348   1.279       .  A
O340       Cu344   2.020       .  S
O340        C347   1.280       .  A
O341       Cu344   2.006       .  S
O341        C346   1.278       .  A
O342       Cu344   2.006       .  S
O342        C345   1.278       .  A
Cu343      Cu344   2.370       .  S
C345        C793   1.483       .  S
C346        C697   1.484       .  S
C347        C705   1.484       .  S
C348        C681   1.482       .  S
N349        C353   1.344       .  A
N349        N350   1.319       .  A
N349       Cu357   2.066       .  S
N350        C351   1.345       .  A
N350       Cu356   2.076       .  S
C351        C352   1.391       .  A
C351        H354   1.081       .  S
C352        C665   1.490       .  S
C352        C353   1.389       .  A
C353        H355   1.081       .  S
Cu356       N359   2.076       .  S
Cu357       N367   2.067       .  S
Cu358       N360   2.080       .  S
Cu358       N366   2.080       .  S
N359        C363   1.344       .  A
N359        N360   1.324       .  A
N360        C361   1.347       .  A
C361        C362   1.384       .  A
C361        H364   1.082       .  S
C362       C1273   1.477       .  S
C362        C363   1.383       .  A
C363        H365   1.082       .  S
N366        C370   1.348   1_545  A
N366        N367   1.321       .  A
N367        C368   1.340       .  A
C368        C369   1.387   1_545  A
C368        H371   1.080       .  S
C369        C673   1.489       .  S
C369        C370   1.391       .  A
C370        H372   1.081       .  S
O373       Cu381   2.027       .  S
O373        C383   1.280       .  A
O374       Cu381   2.025       .  S
O374        C384   1.281       .  A
O375       Cu381   2.004       .  S
O375        C385   1.277       .  A
O376       Cu381   2.002       .  S
O376        C386   1.278       .  A
O377       Cu382   2.005       .  S
O377        C386   1.278       .  A
O378       Cu382   2.011       .  S
O378        C385   1.279       .  A
O379       Cu382   2.008       .  S
O379        C384   1.278       .  A
O380       Cu382   2.008       .  S
O380        C383   1.279       .  A
Cu381      Cu382   2.370       .  S
C383        C633   1.487       .  S
C384        C657   1.486       .  S
C385        C609   1.480       .  S
C386        C641   1.478       .  S
N387        C391   1.342       .  A
N387        N388   1.320       .  A
N387       Cu395   2.068       .  S
N388        C389   1.348       .  A
N388       Cu394   2.083       .  S
C389        C390   1.392       .  A
C389        H392   1.081       .  S
C390        C593   1.492       .  S
C390        C391   1.388       .  A
C391        H393   1.081       .  S
Cu394       N397   2.083       .  S
Cu395       N405   2.069       .  S
Cu396       N398   2.070       .  S
Cu396       N404   2.070       .  S
N397        C401   1.345       .  A
N397        N398   1.323       .  A
N398        C399   1.345       .  A
C399        C400   1.384       .  A
C399        H402   1.082       .  S
C400        C825   1.477       .  S
C400        C401   1.385       .  A
C401        H403   1.082       .  S
N404        C408   1.344   1_545  A
N404        N405   1.321       .  A
N405        C406   1.343       .  A
C406        C407   1.387   1_545  A
C406        H409   1.081       .  S
C407        C721   1.482       .  S
C407        C408   1.386       .  A
C408        H410   1.081       .  S
N411        C415   1.346       .  A
N411        N412   1.320       .  A
N411       Cu419   2.069   1_655  S
N412        C413   1.342       .  A
N412       Cu418   2.073       .  S
C413        C414   1.388       .  A
C413        H416   1.080       .  S
C414        C617   1.487       .  S
C414        C415   1.389       .  A
C415        H417   1.081       .  S
Cu418       N421   2.073       .  S
Cu419       N429   2.069       .  S
Cu420       N422   2.073       .  S
Cu420       N428   2.072       .  S
N421        C425   1.345       .  A
N421        N422   1.321   1_655  A
N422        C423   1.346       .  A
C423        C424   1.385       .  A
C423        H426   1.082       .  S
C424        C801   1.477       .  S
C424        C425   1.384   1_455  A
C425        H427   1.082       .  S
N428        C432   1.344       .  A
N428        N429   1.321       .  A
N429        C430   1.342       .  A
C430        C431   1.388       .  A
C430        H433   1.081       .  S
C431        C585   1.485       .  S
C431        C432   1.387       .  A
C432        H434   1.081       .  S
O435       Cu443   2.003       .  S
O435        C445   1.277       .  A
O436       Cu443   2.004       .  S
O436        C446   1.278       .  A
O437       Cu443   2.024       .  S
O437        C447   1.280       .  A
O438       Cu443   2.017       .  S
O438        C448   1.279       .  A
O439       Cu444   1.985       .  S
O439        C448   1.275       .  A
O440       Cu444   1.990       .  S
O440        C447   1.276       .  A
O441       Cu444   2.024       .  S
O441        C446   1.280       .  A
O442       Cu444   2.023       .  S
O442        C445   1.280       .  A
Cu443      Cu444   2.370       .  S
C445        C601   1.484       .  S
C446        C569   1.486       .  S
C447        C545   1.481       .  S
C448        C577   1.477       .  S
N449        C453   1.343       .  A
N449        N450   1.321       .  A
N449       Cu457   2.067       .  S
N450        C451   1.345       .  A
N450       Cu456   2.081       .  S
C451        C452   1.390       .  A
C451        H454   1.081       .  S
C452        C553   1.487       .  S
C452        C453   1.386       .  A
C453        H455   1.081       .  S
Cu456       N459   2.081       .  S
Cu457       N467   2.067       .  S
Cu458       N460   2.062       .  S
Cu458       N466   2.061       .  S
N459        C463   1.347       .  A
N459        N460   1.323       .  A
N460        C461   1.342       .  A
C461        C462   1.380       .  A
C461        H464   1.082       .  S
C462       C1169   1.471       .  S
C462        C463   1.384       .  A
C463        H465   1.082       .  S
N466        C470   1.343       .  A
N466        N467   1.320       .  A
N467        C468   1.343       .  A
C468        C469   1.387       .  A
C468        H471   1.082       .  S
C469        C649   1.480       .  S
C469        C470   1.386       .  A
C470        H472   1.082       .  S
N473        C477   1.342       .  A
N473        N474   1.321       .  A
N473       Cu481   2.065       .  S
N474        C475   1.346       .  A
N474       Cu480   2.078       .  S
C475        C476   1.389       .  A
C475        H478   1.082       .  S
C476        C761   1.483       .  S
C476        C477   1.385       .  A
C477        H479   1.081       .  S
Cu480       N483   2.079       .  S
Cu481       N491   2.066       .  S
Cu482       N484   2.081       .  S
Cu482       N490   2.081       .  S
N483        C487   1.345       .  A
N483        N484   1.323       .  A
N484        C485   1.347       .  A
C485        C486   1.384       .  A
C485        H488   1.082       .  S
C486       C1137   1.478       .  S
C486        C487   1.384       .  A
C487        H489   1.082       .  S
N490        C494   1.346       .  A
N490        N491   1.321       .  A
N491        C492   1.343       .  A
C492        C493   1.387       .  A
C492        H495   1.081       .  S
C493        C561   1.486       .  S
C493        C494   1.389       .  A
C494        H496   1.081       .  S
N497        C501   1.345       .  A
N497        N498   1.320       .  A
N497       Cu505   2.078       .  S
N498        C499   1.344       .  A
N498       Cu504   2.072       .  S
C499        C500   1.389       .  A
C499        H502   1.081       .  S
C500        C713   1.491       .  S
C500        C501   1.391       .  A
C501        H503   1.081       .  S
Cu504       N507   2.073       .  S
Cu505       N515   2.079       .  S
Cu506       N508   2.086       .  S
Cu506       N514   2.087       .  S
N507        C511   1.345       .  A
N507        N508   1.323       .  A
N508        C509   1.346       .  A
C509        C510   1.387       .  A
C509        H512   1.082       .  S
C510       C1241   1.483       .  S
C510        C511   1.385       .  A
C511        H513   1.082       .  S
N514        C518   1.349       .  A
N514        N515   1.322       .  A
N515        C516   1.343       .  A
C516        C517   1.388       .  A
C516        H519   1.081       .  S
C517        C625   1.490       .  S
C517        C518   1.391       .  A
C518        H520   1.082       .  S
N521        C525   1.346       .  A
N521        N522   1.321       .  A
N521       Cu529   2.075       .  S
N522        C523   1.343       .  A
N522       Cu528   2.070       .  S
C523        C524   1.387       .  A
C523        H526   1.081       .  S
C524        C745   1.485       .  S
C524        C525   1.388       .  A
C525        H527   1.082       .  S
Cu528       N531   2.069       .  S
Cu529       N539   2.075       .  S
Cu530       N532   2.081       .  S
Cu530       N538   2.082       .  S
N531        C535   1.345       .  A
N531        N532   1.322       .  A
N532        C533   1.345       .  A
C533        C534   1.386       .  A
C533        H536   1.082       .  S
C534       C1201   1.478       .  S
C534        C535   1.384       .  A
C535        H537   1.082       .  S
N538        C542   1.346       .  A
N538        N539   1.321       .  A
N539        C540   1.344       .  A
C540        C541   1.389       .  A
C540        H543   1.081       .  S
C541        C689   1.491       .  S
C541        C542   1.391       .  A
C542        H544   1.081       .  S
C545        C546   1.407       .  A
C545        C550   1.407       .  A
C546        C547   1.395       .  A
C546        H555   1.083       .  S
C547        C548   1.400       .  A
C547        H556   1.084       .  S
C548        C554   1.403       .  A
C548        C549   1.413       .  A
C549        C551   1.401       .  A
C549        C550   1.406       .  A
C550        H557   1.084       .  S
C551        C552   1.398       .  A
C551        H558   1.084       .  S
C552        C553   1.408       .  A
C552        H559   1.081       .  S
C553        C554   1.406       .  A
C554        H560   1.082       .  S
C561        C562   1.407       .  A
C561        C566   1.409       .  A
C562        C563   1.396       .  A
C562        H571   1.082       .  S
C563        C564   1.401       .  A
C563        H572   1.084       .  S
C564        C570   1.404       .  A
C564        C565   1.412       .  A
C565        C567   1.403       .  A
C565        C566   1.407       .  A
C566        H573   1.083       .  S
C567        C568   1.400       .  A
C567        H574   1.083       .  S
C568        C569   1.406       .  A
C568        H575   1.083       .  S
C569        C570   1.408       .  A
C570        H576   1.084       .  S
C577        C578   1.407       .  A
C577        C582   1.406       .  A
C578        C579   1.392       .  A
C578        H587   1.083       .  S
C579        C580   1.399       .  A
C579        H588   1.084       .  S
C580        C586   1.399       .  A
C580        C581   1.413       .  A
C581        C583   1.401       .  A
C581        C582   1.404       .  A
C582        H589   1.084       .  S
C583        C584   1.398       .  A
C583        H590   1.084       .  S
C584        C585   1.408       .  A
C584        H591   1.081       .  S
C585        C586   1.406       .  A
C586        H592   1.081       .  S
C593        C594   1.409       .  A
C593        C598   1.410       .  A
C594        C595   1.396       .  A
C594        H603   1.081       .  S
C595        C596   1.399       .  A
C595        H604   1.083       .  S
C596        C602   1.405       .  A
C596        C597   1.413       .  A
C597        C599   1.402       .  A
C597        C598   1.408       .  A
C598        H605   1.082       .  S
C599        C600   1.399       .  A
C599        H606   1.084       .  S
C600        C601   1.408       .  A
C600        H607   1.083       .  S
C601        C602   1.406       .  A
C602        H608   1.084       .  S
C609        C610   1.406       .  A
C609        C614   1.405       .  A
C610        C611   1.398       .  A
C610        H619   1.083       .  S
C611        C612   1.403       .  A
C611        H620   1.083       .  S
C612        C618   1.406       .  A
C612        C613   1.413       .  A
C613        C615   1.399       .  A
C613        C614   1.402       .  A
C614        H621   1.084       .  S
C615        C616   1.395       .  A
C615        H622   1.083       .  S
C616        C617   1.407       .  A
C616        H623   1.081       .  S
C617        C618   1.409       .  A
C618        H624   1.082       .  S
C625        C626   1.408       .  A
C625        C630   1.407       .  A
C626        C627   1.403       .  A
C626        H635   1.082       .  S
C627        C628   1.405       .  A
C627        H636   1.084       .  S
C628        C634   1.411       .  A
C628        C629   1.413       .  A
C629        C631   1.400       .  A
C629        C630   1.403       .  A
C630        H637   1.083       .  S
C631        C632   1.395       .  A
C631        H638   1.084       .  S
C632        C633   1.407       .  A
C632        H639   1.083       .  S
C633        C634   1.411       .  A
C634        H640   1.084       .  S
C641        C642   1.406       .  A
C641        C646   1.406       .  A
C642        C643   1.396       .  A
C642        H651   1.083       .  S
C643        C644   1.401       .  A
C643        H652   1.084       .  S
C644        C650   1.401       .  A
C644        C645   1.412       .  A
C645        C647   1.401       .  A
C645        C646   1.401       .  A
C646        H653   1.084       .  S
C647        C648   1.396       .  A
C647        H654   1.083       .  S
C648        C649   1.406       .  A
C648        H655   1.082       .  S
C649        C650   1.406       .  A
C650        H656   1.083       .  S
C657        C658   1.406       .  A
C657        C662   1.409       .  A
C658        C659   1.399       .  A
C658        H667   1.083       .  S
C659        C660   1.403       .  A
C659        H668   1.084       .  S
C660        C666   1.406       .  A
C660        C661   1.412       .  A
C661        C663   1.401       .  A
C661        C662   1.405       .  A
C662        H669   1.084       .  S
C663        C664   1.397       .  A
C663        H670   1.084       .  S
C664        C665   1.408       .  A
C664        H671   1.081       .  S
C665        C666   1.410       .  A
C666        H672   1.082       .  S
C673        C674   1.408       .  A
C673        C678   1.411       .  A
C674        C675   1.393       .  A
C674        H683   1.080       .  S
C675        C676   1.398       .  A
C675        H684   1.084       .  S
C676        C682   1.400       .  A
C676        C677   1.412       .  A
C677        C679   1.405       .  A
C677        C678   1.408       .  A
C678        H685   1.082       .  S
C679        C680   1.401       .  A
C679        H686   1.083       .  S
C680        C681   1.406       .  A
C680        H687   1.083       .  S
C681        C682   1.405       .  A
C682        H688   1.084       .  S
C689        C690   1.408       .  A
C689        C694   1.409       .  A
C690        C691   1.399       .  A
C690        H699   1.081       .  S
C691        C692   1.402       .  A
C691        H700   1.084       .  S
C692        C698   1.406       .  A
C692        C693   1.412       .  A
C693        C695   1.401       .  A
C693        C694   1.404       .  A
C694        H701   1.082       .  S
C695        C696   1.396       .  A
C695        H702   1.084       .  S
C696        C697   1.407       .  A
C696        H703   1.083       .  S
C697        C698   1.408       .  A
C698        H704   1.084       .  S
C705        C706   1.407       .  A
C705        C710   1.407       .  A
C706        C707   1.398       .  A
C706        H715   1.083       .  S
C707        C708   1.402       .  A
C707        H716   1.083       .  S
C708        C714   1.405       .  A
C708        C709   1.412       .  A
C709        C711   1.401       .  A
C709        C710   1.405       .  A
C710        H717   1.083       .  S
C711        C712   1.398       .  A
C711        H718   1.083       .  S
C712        C713   1.408       .  A
C712        H719   1.081       .  S
C713        C714   1.410       .  A
C714        H720   1.081       .  S
C721        C722   1.406       .  A
C721        C726   1.405       .  A
C722        C723   1.398       .  A
C722        H731   1.082       .  S
C723        C724   1.402       .  A
C723        H732   1.084       .  S
C724        C730   1.405       .  A
C724        C725   1.413       .  A
C725        C727   1.400       .  A
C725        C726   1.401       .  A
C726        H733   1.083       .  S
C727        C728   1.394       .  A
C727        H734   1.084       .  S
C728        C729   1.406       .  A
C728        H735   1.083       .  S
C729        C730   1.407       .  A
C730        H736   1.084       .  S
C737        C738   1.406       .  A
C737        C742   1.408       .  A
C738        C739   1.399       .  A
C738        H747   1.083       .  S
C739        C740   1.402       .  A
C739        H748   1.084       .  S
C740        C746   1.406       .  A
C740        C741   1.413       .  A
C741        C743   1.401       .  A
C741        C742   1.405       .  A
C742        H749   1.084       .  S
C743        C744   1.397       .  A
C743        H750   1.084       .  S
C744        C745   1.407       .  A
C744        H751   1.082       .  S
C745        C746   1.408       .  A
C746        H752   1.083       .  S
C753        C754   1.405       .  A
C753        C758   1.407       .  A
C754        C755   1.397       .  A
C754        H763   1.083       .  S
C755        C756   1.402       .  A
C755        H764   1.084       .  S
C756        C762   1.402       .  A
C756        C757   1.412       .  A
C757        C759   1.402       .  A
C757        C758   1.402       .  A
C758        H765   1.084       .  S
C759        C760   1.398       .  A
C759        H766   1.084       .  S
C760        C761   1.406       .  A
C760        H767   1.082       .  S
C761        C762   1.408       .  A
C762        H768   1.083       .  S
C769        C770   1.408       .  A
C769        C774   1.407       .  A
C770        C771   1.396       .  A
C770        H779   1.083       .  S
C771        C772   1.400       .  A
C771        H780   1.084       .  S
C772        C778   1.405       .  A
C772        C773   1.414       .  A
C773        C775   1.400       .  A
C773        C774   1.406       .  A
C774        H781   1.084       .  S
C775        C776   1.397       .  A
C775        H782   1.084       .  S
C776        C777   1.409       .  A
C776        H783   1.080       .  S
C777        C778   1.407       .  A
C778        H784   1.083       .  S
C785        C786   1.407       .  A
C785        C790   1.409       .  A
C786        C787   1.396       .  A
C786        H795   1.081       .  S
C787        C788   1.400       .  A
C787        H796   1.084       .  S
C788        C794   1.404       .  A
C788        C789   1.413       .  A
C789        C791   1.402       .  A
C789        C790   1.406       .  A
C790        H797   1.083       .  S
C791        C792   1.398       .  A
C791        H798   1.084       .  S
C792        C793   1.407       .  A
C792        H799   1.083       .  S
C793        C794   1.406       .  A
C794        H800   1.084       .  S
C801        C802   1.404       .  A
C801        C806   1.405   1_455  A
C802        C803   1.398       .  A
C802        H811   1.083       .  S
C803        C804   1.403       .  A
C803        H812   1.083       .  S
C804        C810   1.405       .  A
C804        C805   1.414   1_455  A
C805        C807   1.402       .  A
C805        C806   1.404       .  A
C806        H813   1.084       .  S
C807        C808   1.397       .  A
C807        H814   1.083       .  S
C808        C809   1.405       .  A
C808        H815   1.083       .  S
C809        C810   1.406   1_655  A
C810        H816   1.084       .  S
C817        C818   1.404       .  A
C817        C822   1.404       .  A
C818        C819   1.398       .  A
C818        H827   1.083       .  S
C819        C820   1.403       .  A
C819        H828   1.083       .  S
C820        C826   1.404       .  A
C820        C821   1.414       .  A
C821        C823   1.402       .  A
C821        C822   1.402       .  A
C822        H829   1.085       .  S
C823        C824   1.397       .  A
C823        H830   1.084       .  S
C824        C825   1.404       .  A
C824        H831   1.083       .  S
C825        C826   1.406       .  A
C826        H832   1.084       .  S
C833        C834   1.405       .  A
C833        C838   1.408       .  A
C834        C835   1.399       .  A
C834        H843   1.083       .  S
C835        C836   1.403       .  A
C835        H844   1.084       .  S
C836        C842   1.406       .  A
C836        C837   1.414       .  A
C837        C839   1.404       .  A
C837        C838   1.407       .  A
C838        H845   1.084       .  S
C839        C840   1.400       .  A
C839        H846   1.083       .  S
C840        C841   1.406       .  A
C840        H847   1.083       .  S
C841        C842   1.407       .  A
C842        H848   1.084       .  S
C849        C850   1.406       .  A
C849        C854   1.407       .  A
C850        C851   1.399       .  A
C850        H859   1.083       .  S
C851        C852   1.403       .  A
C851        H860   1.084       .  S
C852        C858   1.406       .  A
C852        C853   1.412       .  A
C853        C855   1.401       .  A
C853        C854   1.404       .  A
C854        H861   1.085       .  S
C855        C856   1.398       .  A
C855        H862   1.084       .  S
C856        C857   1.408       .  A
C856        H863   1.081       .  S
C857        C858   1.411       .  A
C858        H864   1.082       .  S
C865        C866   1.406       .  A
C865        C870   1.407       .  A
C866        C867   1.398       .  A
C866        H875   1.083       .  S
C867        C868   1.402       .  A
C867        H876   1.084       .  S
C868        C874   1.404       .  A
C868        C869   1.412       .  A
C869        C871   1.401       .  A
C869        C870   1.403       .  A
C870        H877   1.084       .  S
C871        C872   1.397       .  A
C871        H878   1.084       .  S
C872        C873   1.408       .  A
C872        H879   1.081       .  S
C873        C874   1.409       .  A
C874        H880   1.082       .  S
C881        C882   1.406       .  A
C881        C886   1.406       .  A
C882        C883   1.399       .  A
C882        H891   1.083       .  S
C883        C884   1.403       .  A
C883        H892   1.083       .  S
C884        C890   1.405       .  A
C884        C885   1.412       .  A
C885        C887   1.399       .  A
C885        C886   1.401       .  A
C886        H893   1.084       .  S
C887        C888   1.395       .  A
C887        H894   1.084       .  S
C888        C889   1.407       .  A
C888        H895   1.081       .  S
C889        C890   1.409       .  A
C890        H896   1.082       .  S
C897        C898   1.405   1_655  A
C897        C902   1.405       .  A
C898        C899   1.396       .  A
C898        H907   1.083       .  S
C899        C900   1.401   1_455  A
C899        H908   1.084       .  S
C900        C906   1.401       .  A
C900        C901   1.415       .  A
C901        C903   1.403       .  A
C901        C902   1.403       .  A
C902        H909   1.084       .  S
C903        C904   1.398       .  A
C903        H910   1.084       .  S
C904        C905   1.403       .  A
C904        H911   1.083       .  S
C905        C906   1.402       .  A
C906        H912   1.085   1_655  S
C913        C914   1.407       .  A
C913        C918   1.407       .  A
C914        C915   1.398       .  A
C914        H923   1.083       .  S
C915        C916   1.402       .  A
C915        H924   1.084       .  S
C916        C922   1.407       .  A
C916        C917   1.413       .  A
C917        C919   1.400       .  A
C917        C918   1.405       .  A
C918        H925   1.084       .  S
C919        C920   1.397       .  A
C919        H926   1.084       .  S
C920        C921   1.409       .  A
C920        H927   1.080       .  S
C921        C922   1.409       .  A
C922        H928   1.082       .  S
C929        C930   1.406       .  A
C929        C934   1.409       .  A
C930        C931   1.395       .  A
C930        H939   1.083       .  S
C931        C932   1.400       .  A
C931        H940   1.083       .  S
C932        C938   1.404       .  A
C932        C933   1.413       .  A
C933        C935   1.403       .  A
C933        C934   1.408       .  A
C934        H941   1.084       .  S
C935        C936   1.400       .  A
C935        H942   1.083       .  S
C936        C937   1.408       .  A
C936        H943   1.082       .  S
C937        C938   1.406       .  A
C938        H944   1.083       .  S
C945        C946   1.405       .  A
C945        C950   1.406       .  A
C946        C947   1.397       .  A
C946        H955   1.082       .  S
C947        C948   1.401       .  A
C947        H956   1.084       .  S
C948        C954   1.402       .  A
C948        C949   1.413       .  A
C949        C951   1.402       .  A
C949        C950   1.402       .  A
C950        H957   1.083       .  S
C951        C952   1.396       .  A
C951        H958   1.084       .  S
C952        C953   1.405       .  A
C952        H959   1.083       .  S
C953        C954   1.405       .  A
C954        H960   1.084       .  S
C961        C962   1.407       .  A
C961        C966   1.406       .  A
C962        C963   1.397       .  A
C962        H971   1.083       .  S
C963        C964   1.401       .  A
C963        H972   1.084       .  S
C964        C970   1.405       .  A
C964        C965   1.414       .  A
C965        C967   1.401       .  A
C965        C966   1.404       .  A
C966        H973   1.084       .  S
C967        C968   1.397       .  A
C967        H974   1.084       .  S
C968        C969   1.406       .  A
C968        H975   1.082       .  S
C969        C970   1.407       .  A
C970        H976   1.084       .  S
C977        C978   1.407       .  A
C977        C982   1.407       .  A
C978        C979   1.396       .  A
C978        H987   1.083       .  S
C979        C980   1.400       .  A
C979        H988   1.083       .  S
C980        C986   1.403       .  A
C980        C981   1.413       .  A
C981        C983   1.400       .  A
C981        C982   1.404       .  A
C982        H989   1.084       .  S
C983        C984   1.397       .  A
C983        H990   1.084       .  S
C984        C985   1.408       .  A
C984        H991   1.081       .  S
C985        C986   1.407       .  A
C986        H992   1.082       .  S
C993        C994   1.408       .  A
C993        C998   1.408       .  A
C994        C995   1.399       .  A
C994       H1003   1.081       .  S
C995        C996   1.402       .  A
C995       H1004   1.084       .  S
C996       C1002   1.405       .  A
C996        C997   1.412       .  A
C997        C999   1.401       .  A
C997        C998   1.402       .  A
C998       H1005   1.081       .  S
C999       C1000   1.395       .  A
C999       H1006   1.084       .  S
C1000      C1001   1.407       .  A
C1000      H1007   1.083       .  S
C1001      C1002   1.407       .  A
C1002      H1008   1.084       .  S
C1009      C1010   1.409       .  A
C1009      C1014   1.408       .  A
C1010      C1011   1.397       .  A
C1010      H1019   1.081       .  S
C1011      C1012   1.400       .  A
C1011      H1020   1.084       .  S
C1012      C1018   1.404       .  A
C1012      C1013   1.412       .  A
C1013      C1015   1.403       .  A
C1013      C1014   1.406       .  A
C1014      H1021   1.082       .  S
C1015      C1016   1.398       .  A
C1015      H1022   1.084       .  S
C1016      C1017   1.406       .  A
C1016      H1023   1.083       .  S
C1017      C1018   1.408       .  A
C1018      H1024   1.084       .  S
C1025      C1026   1.407       .  A
C1025      C1030   1.406       .  A
C1026      C1027   1.395       .  A
C1026      H1035   1.083       .  S
C1027      C1028   1.401       .  A
C1027      H1036   1.084       .  S
C1028      C1034   1.401       .  A
C1028      C1029   1.413       .  A
C1029      C1031   1.400       .  A
C1029      C1030   1.403       .  A
C1030      H1037   1.084       .  S
C1031      C1032   1.397       .  A
C1031      H1038   1.084       .  S
C1032      C1033   1.408       .  A
C1032      H1039   1.081       .  S
C1033      C1034   1.407       .  A
C1034      H1040   1.082       .  S
C1041      C1042   1.406       .  A
C1041      C1046   1.405       .  A
C1042      C1043   1.397       .  A
C1042      H1051   1.083       .  S
C1043      C1044   1.402       .  A
C1043      H1052   1.084       .  S
C1044      C1050   1.403       .  A
C1044      C1045   1.414       .  A
C1045      C1047   1.401       .  A
C1045      C1046   1.402       .  A
C1046      H1053   1.084       .  S
C1047      C1048   1.396       .  A
C1047      H1054   1.084       .  S
C1048      C1049   1.404       .  A
C1048      H1055   1.082       .  S
C1049      C1050   1.407       .  A
C1050      H1056   1.084       .  S
C1057      C1058   1.405       .  A
C1057      C1062   1.408       .  A
C1058      C1059   1.394       .  A
C1058      H1067   1.083       .  S
C1059      C1060   1.401       .  A
C1059      H1068   1.084       .  S
C1060      C1066   1.401       .  A
C1060      C1061   1.412       .  A
C1061      C1063   1.403       .  A
C1061      C1062   1.405       .  A
C1062      H1069   1.084       .  S
C1063      C1064   1.400       .  A
C1063      H1070   1.084       .  S
C1064      C1065   1.407       .  A
C1064      H1071   1.082       .  S
C1065      C1066   1.407       .  A
C1066      H1072   1.082       .  S
C1073      C1074   1.406       .  A
C1073      C1078   1.406       .  A
C1074      C1075   1.395       .  A
C1074      H1083   1.083       .  S
C1075      C1076   1.401       .  A
C1075      H1084   1.084       .  S
C1076      C1082   1.401       .  A
C1076      C1077   1.412       .  A
C1077      C1079   1.401       .  A
C1077      C1078   1.403       .  A
C1078      H1085   1.084       .  S
C1079      C1080   1.397       .  A
C1079      H1086   1.084       .  S
C1080      C1081   1.408       .  A
C1080      H1087   1.081       .  S
C1081      C1082   1.407       .  A
C1082      H1088   1.082       .  S
C1089      C1090   1.406       .  A
C1089      C1094   1.406       .  A
C1090      C1091   1.391       .  A
C1090      H1099   1.081       .  S
C1091      C1092   1.398       .  A
C1091      H1100   1.084       .  S
C1092      C1098   1.396       .  A
C1092      C1093   1.413       .  A
C1093      C1095   1.402       .  A
C1093      C1094   1.401       .  A
C1094      H1101   1.083       .  S
C1095      C1096   1.398       .  A
C1095      H1102   1.083       .  S
C1096      C1097   1.406       .  A
C1096      H1103   1.083       .  S
C1097      C1098   1.404       .  A
C1098      H1104   1.084       .  S
C1105      C1106   1.407       .  A
C1105      C1110   1.405       .  A
C1106      C1107   1.397       .  A
C1106      H1115   1.082   1_565  S
C1107      C1108   1.401       .  A
C1107      H1116   1.084       .  S
C1108      C1114   1.404       .  A
C1108      C1109   1.414       .  A
C1109      C1111   1.400       .  A
C1109      C1110   1.402       .  A
C1110      H1117   1.083       .  S
C1111      C1112   1.395       .  A
C1111      H1118   1.084       .  S
C1112      C1113   1.407       .  A
C1112      H1119   1.083       .  S
C1113      C1114   1.406       .  A
C1114      H1120   1.084       .  S
C1121      C1122   1.404       .  A
C1121      C1126   1.405       .  A
C1122      C1123   1.397       .  A
C1122      H1131   1.083       .  S
C1123      C1124   1.402       .  A
C1123      H1132   1.083       .  S
C1124      C1130   1.404       .  A
C1124      C1125   1.415       .  A
C1125      C1127   1.402       .  A
C1125      C1126   1.405       .  A
C1126      H1133   1.084       .  S
C1127      C1128   1.398       .  A
C1127      H1134   1.083       .  S
C1128      C1129   1.404       .  A
C1128      H1135   1.083       .  S
C1129      C1130   1.404       .  A
C1130      H1136   1.084       .  S
C1137      C1138   1.404       .  A
C1137      C1142   1.405       .  A
C1138      C1139   1.400       .  A
C1138      H1147   1.083       .  S
C1139      C1140   1.404       .  A
C1139      H1148   1.083       .  S
C1140      C1146   1.407       .  A
C1140      C1141   1.414       .  A
C1141      C1143   1.402       .  A
C1141      C1142   1.404       .  A
C1142      H1149   1.084       .  S
C1143      C1144   1.397       .  A
C1143      H1150   1.083       .  S
C1144      C1145   1.405       .  A
C1144      H1151   1.083       .  S
C1145      C1146   1.408       .  A
C1146      H1152   1.084       .  S
C1153      C1154   1.404       .  A
C1153      C1158   1.403       .  A
C1154      C1155   1.398       .  A
C1154      H1163   1.083       .  S
C1155      C1156   1.403       .  A
C1155      H1164   1.084       .  S
C1156      C1162   1.403       .  A
C1156      C1157   1.414       .  A
C1157      C1159   1.401       .  A
C1157      C1158   1.400       .  A
C1158      H1165   1.084       .  S
C1159      C1160   1.395       .  A
C1159      H1166   1.084       .  S
C1160      C1161   1.403       .  A
C1160      H1167   1.083       .  S
C1161      C1162   1.404       .  A
C1162      H1168   1.085       .  S
C1169      C1170   1.403       .  A
C1169      C1174   1.404       .  A
C1170      C1171   1.395       .  A
C1170      H1179   1.083       .  S
C1171      C1172   1.401       .  A
C1171      H1180   1.084       .  S
C1172      C1178   1.401       .  A
C1172      C1173   1.415       .  A
C1173      C1175   1.403       .  A
C1173      C1174   1.404       .  A
C1174      H1181   1.084       .  S
C1175      C1176   1.399       .  A
C1175      H1182   1.084       .  S
C1176      C1177   1.404       .  A
C1176      H1183   1.083       .  S
C1177      C1178   1.403       .  A
C1178      H1184   1.085       .  S
C1185      C1186   1.404   1_545  A
C1185      C1190   1.405       .  A
C1186      C1187   1.397       .  A
C1186      H1195   1.083       .  S
C1187      C1188   1.402       .  A
C1187      H1196   1.084       .  S
C1188      C1194   1.404       .  A
C1188      C1189   1.415   1_565  A
C1189      C1191   1.403       .  A
C1189      C1190   1.405       .  A
C1190      H1197   1.084       .  S
C1191      C1192   1.398   1_545  A
C1191      H1198   1.084       .  S
C1192      C1193   1.404       .  A
C1192      H1199   1.083       .  S
C1193      C1194   1.404       .  A
C1194      H1200   1.084       .  S
C1201      C1202   1.405       .  A
C1201      C1206   1.404       .  A
C1202      C1203   1.399   1_565  A
C1202      H1211   1.083       .  S
C1203      C1204   1.403   1_545  A
C1203      H1212   1.083       .  S
C1204      C1210   1.404   1_565  A
C1204      C1205   1.414       .  A
C1205      C1207   1.402       .  A
C1205      C1206   1.402       .  A
C1206      H1213   1.084       .  S
C1207      C1208   1.396       .  A
C1207      H1214   1.083       .  S
C1208      C1209   1.403   1_565  A
C1208      H1215   1.083       .  S
C1209      C1210   1.405       .  A
C1210      H1216   1.084       .  S
C1217      C1218   1.407       .  A
C1217      C1222   1.408       .  A
C1218      C1219   1.402       .  A
C1218      H1227   1.083       .  S
C1219      C1220   1.404       .  A
C1219      H1228   1.083       .  S
C1220      C1226   1.411       .  A
C1220      C1221   1.415       .  A
C1221      C1223   1.402       .  A
C1221      C1222   1.407       .  A
C1222      H1229   1.084       .  S
C1223      C1224   1.398       .  A
C1223      H1230   1.084       .  S
C1224      C1225   1.404       .  A
C1224      H1231   1.083       .  S
C1225      C1226   1.407       .  A
C1226      H1232   1.084       .  S
C1233      C1234   1.402       .  A
C1233      C1238   1.405       .  A
C1234      C1235   1.397       .  A
C1234      H1243   1.083       .  S
C1235      C1236   1.402       .  A
C1235      H1244   1.084       .  S
C1236      C1242   1.404       .  A
C1236      C1237   1.414       .  A
C1237      C1239   1.403       .  A
C1237      C1238   1.406       .  A
C1238      H1245   1.084       .  S
C1239      C1240   1.399       .  A
C1239      H1246   1.084       .  S
C1240      C1241   1.407       .  A
C1240      H1247   1.082       .  S
C1241      C1242   1.406       .  A
C1242      H1248   1.083       .  S
C1249      C1250   1.404       .  A
C1249      C1254   1.402       .  A
C1250      C1251   1.395       .  A
C1250      H1259   1.083       .  S
C1251      C1252   1.401       .  A
C1251      H1260   1.084       .  S
C1252      C1258   1.400       .  A
C1252      C1253   1.415       .  A
C1253      C1255   1.401       .  A
C1253      C1254   1.400       .  A
C1254      H1261   1.084       .  S
C1255      C1256   1.395       .  A
C1255      H1262   1.083       .  S
C1256      C1257   1.403       .  A
C1256      H1263   1.083       .  S
C1257      C1258   1.402       .  A
C1258      H1264   1.084       .  S
C1265      C1266   1.406       .  A
C1265      C1270   1.407       .  A
C1266      C1267   1.395       .  A
C1266      H1275   1.083       .  S
C1267      C1268   1.400       .  A
C1267      H1276   1.084       .  S
C1268      C1274   1.403       .  A
C1268      C1269   1.415       .  A
C1269      C1271   1.404       .  A
C1269      C1270   1.407       .  A
C1270      H1277   1.084       .  S
C1271      C1272   1.400       .  A
C1271      H1278   1.083       .  S
C1272      C1273   1.404       .  A
C1272      H1279   1.083       .  S
C1273      C1274   1.403       .  A
C1274      H1280   1.084       .  S
C1281      C1282   1.405       .  A
C1281      C1286   1.404   1_655  A
C1282      C1283   1.395       .  A
C1282      H1291   1.083       .  S
C1283      C1284   1.401       .  A
C1283      H1292   1.084       .  S
C1284      C1290   1.401       .  A
C1284      C1285   1.415   1_655  A
C1285      C1287   1.403       .  A
C1285      C1286   1.404       .  A
C1286      H1293   1.084       .  S
C1287      C1288   1.398       .  A
C1287      H1294   1.083       .  S
C1288      C1289   1.403       .  A
C1288      H1295   1.083       .  S
C1289      C1290   1.402   1_455  A
C1290      H1296   1.084       .  S
C1297      C1298   1.403       .  A
C1297      C1302   1.401   1_655  A
C1298      C1299   1.399       .  A
C1298      H1307   1.083       .  S
C1299      C1300   1.404       .  A
C1299      H1308   1.084       .  S
C1300      C1306   1.403       .  A
C1300      C1301   1.415   1_655  A
C1301      C1303   1.400       .  A
C1301      C1302   1.398       .  A
C1302      H1309   1.085       .  S
C1303      C1304   1.393       .  A
C1303      H1310   1.084       .  S
C1304      C1305   1.402       .  A
C1304      H1311   1.083       .  S
C1305      C1306   1.404   1_455  A
C1306      H1312   1.084       .  S
