geometry optimzed in LAMMPS
_audit_creation_date              2020-11-30 
_audit_creation_method            'lammps2cif' 
_symmetry_space_group_name_H-M    'P1' 
_symmetry_Int_Tables_number       1 
_symmetry_cell_setting            triclinic 
loop_ 
_symmetry_equiv_pos_as_xyz 
  x,y,z 
_cell_length_a                    41.04325609 
_cell_length_b                    41.11786836745304 
_cell_length_c                    41.50905661583789 
_cell_angle_alpha                 90.65016289007941 
_cell_angle_beta                  90.16179113437504 
_cell_angle_gamma                 91.86551782949353 
loop_ 
_atom_site_label 
_atom_site_type_symbol 
_atom_site_fract_x 
_atom_site_fract_y 
_atom_site_fract_z 
_atom_site_charge 
O1          O  0.07088854  0.21660786  0.03392771    -0.80400
O2          O  0.07110595  0.28812276  0.47004736    -0.80400
O3          O  0.12584047  0.27551702  0.07177580    -0.80400
O4          O  0.14754162  0.23523695  0.41311806    -0.80400
O5          O  0.07994384  0.28280401  0.04517025    -0.80500
O6          O  0.10648403  0.20905440  0.43958814    -0.80400
O7          O  0.11074468  0.27490772  0.43809549    -0.80400
O8          O  0.11478326  0.21170391  0.06407155    -0.80400
C9          C  0.08423855  0.20939981  0.06052915     1.09300
C10         C  0.08322629  0.28608323  0.44147917     1.09200
C11         C  0.09647667  0.28415793  0.07152809     1.09300
C12         C  0.12135169  0.21706689  0.41211879     1.09200
O13         O  0.13131304  0.19100756  0.46354748    -0.80400
O14         O  0.14150463  0.31346616  0.02967174    -0.80500
O15         O  0.16819066  0.20258901  0.02619564    -0.80400
O16         O  0.17269594  0.29051848  0.45814599    -0.80400
O17         O  0.13104753  0.32102146  0.47065451    -0.80400
O18         O  0.12204715  0.17531357  0.01300023    -0.80400
O19         O  0.17751095  0.21912212  0.46954911    -0.80300
O20         O  0.17992676  0.27587640  0.02933196    -0.80400
Co21       Co  0.09443871  0.21050742  0.99187926     1.51500
Co22       Co  0.10604871  0.29834571  0.50425797     1.51700
Co23       Co  0.14686884  0.24218938  0.04385461     1.51600
Co24       Co  0.14379482  0.24922253  0.45788450     1.51500
O25         O  0.12270487  0.25119490  0.00108943    -1.42300
C26         C  0.16267105  0.19272417  0.46123668     1.09200
C27         C  0.17133633  0.30550836  0.03233155     1.09300
C28         C  0.15148419  0.17548663  0.02399502     1.09300
C29         C  0.16009523  0.31867589  0.46182681     1.09200
O30         O  0.38957022  0.22473351  0.06836569    -0.80400
O31         O  0.37612436  0.27936707  0.42880448    -0.80400
O32         O  0.42375373  0.22116661  0.45919261    -0.80400
O33         O  0.42055710  0.29959709  0.03081665    -0.80400
O34         O  0.37803054  0.22991295  0.43216024    -0.80500
O35         O  0.38014404  0.28698900  0.06476833    -0.80400
O36         O  0.42139214  0.28615648  0.45649654    -0.80400
O37         O  0.43126310  0.22316217  0.03437264    -0.80400
C38         C  0.41976603  0.22283493  0.06358411     1.09300
C39         C  0.40599728  0.28824148  0.42947581     1.09200
C40         C  0.40723641  0.22010458  0.43251783     1.09300
C41         C  0.40878644  0.29886904  0.05949656     1.09200
O42         O  0.31821881  0.27557332  0.03207574    -0.80400
O43         O  0.32223812  0.22043966  0.46691814    -0.80500
O44         O  0.37824179  0.17886565  0.03223276    -0.80400
O45         O  0.39269783  0.33907776  0.47634946    -0.80400
O46         O  0.34693142  0.30865456  0.46301578    -0.80400
O47         O  0.33237360  0.20519967  0.03632625    -0.80400
O48         O  0.35466098  0.31382419  0.02120860    -0.80300
O49         O  0.36462146  0.18749256  0.47307391    -0.80400
Co50       Co  0.35514752  0.24806158  0.04666512     1.51500
Co51       Co  0.35595032  0.25745623  0.46593392     1.51700
Co52       Co  0.40041487  0.20563922  0.99868773     1.51600
Co53       Co  0.39182084  0.29671380  0.49379318     1.51500
O54         O  0.37572515  0.24859696  0.00195551    -1.42300
C55         C  0.32604916  0.30570064  0.02951148     1.09200
C56         C  0.33423243  0.19165000  0.46753990     1.09300
C57         C  0.34799283  0.17850098  0.03745505     1.09300
C58         C  0.36433329  0.33689031  0.46327486     1.09200
O59         O  0.20738028  0.02999073  0.17397858    -0.80400
O60         O  0.28287283  0.46222995  0.17579521    -0.80400
O61         O  0.17732127  0.46071399  0.13382180    -0.80400
O62         O  0.31475845  0.03334387  0.12777302    -0.80400
O63         O  0.21021695  0.45923339  0.17600138    -0.80500
O64         O  0.28426644  0.03655037  0.17139367    -0.80400
O65         O  0.31457560  0.46349257  0.13297922    -0.80400
O66         O  0.17626510  0.02027100  0.13111737    -0.80400
C67         C  0.17887172  0.02906053  0.16030205     1.09300
C68         C  0.31136467  0.46088551  0.16339902     1.09200
C69         C  0.18178169  0.45566957  0.16353572     1.09300
C70         C  0.31208536  0.04019971  0.15708997     1.09200
O71         O  0.27249637  0.06638869  0.11128511    -0.80400
O72         O  0.21517371  0.42372822  0.11664941    -0.80500
O73         O  0.20967073  0.03142416  0.07293006    -0.80400
O74         O  0.27786978  0.45366348  0.07351954    -0.80400
O75         O  0.27671563  0.42338535  0.11700106    -0.80400
O76         O  0.21125434  0.06378794  0.11562839    -0.80400
O77         O  0.28033049  0.03140983  0.07093107    -0.80300
O78         O  0.21061805  0.45578561  0.07424450    -0.80400
Co79       Co  0.24443741  0.04380336  0.14347670     1.51500
Co80       Co  0.24628233  0.44723910  0.14621455     1.51700
Co81       Co  0.20128688  0.99207257  0.10211471     1.51600
Co82       Co  0.29458292  0.99764643  0.10298467     1.51500
O83         O  0.24763678  0.99652209  0.12375456    -1.42300
C84         C  0.28019476  0.06095470  0.08215110     1.09200
C85         C  0.20895676  0.42737274  0.08694604     1.09300
C86         C  0.20462305  0.05955920  0.08615034     1.09300
C87         C  0.28007688  0.42556975  0.08667242     1.09200
O88         O  0.18287614  0.03500246  0.36565810    -0.80400
O89         O  0.32001722  0.47743667  0.36545760    -0.80400
O90         O  0.29235019  0.03988994  0.32760895    -0.80400
O91         O  0.21377106  0.47010695  0.32255803    -0.80400
O92         O  0.32239389  0.03250173  0.37158699    -0.80500
O93         O  0.18146979  0.47464609  0.36497480    -0.80400
O94         O  0.28720119  0.47175920  0.32322989    -0.80400
O95         O  0.21637804  0.04032169  0.32363676    -0.80400
C96         C  0.18733573  0.04009515  0.33601616     1.09300
C97         C  0.31542604  0.46973154  0.33612133     1.09200
C98         C  0.32040029  0.04078343  0.34192316     1.09300
C99         C  0.18549763  0.46682868  0.33559155     1.09200
O100        O  0.21534767  0.46875987  0.42385120    -0.80400
O101        O  0.28205528  0.03921344  0.42831978    -0.80500
O102        O  0.22177080  0.07703150  0.38000939    -0.80400
O103        O  0.28134805  0.43777801  0.38301767    -0.80400
O104        O  0.28564036  0.47169841  0.42460120    -0.80400
O105        O  0.21606891  0.04658914  0.42364121    -0.80400
O106        O  0.21972677  0.43700658  0.38088576    -0.80300
O107        O  0.28442303  0.07308716  0.38709574    -0.80400
Co108      Co  0.20393397  0.00658202  0.39640818     1.51500
Co109      Co  0.29044590  0.00400739  0.39600779     1.51700
Co110      Co  0.25359009  0.05338128  0.35403048     1.51600
Co111      Co  0.25057960  0.45931462  0.35249325     1.51500
O112        O  0.24881308  0.00770527  0.37348728    -1.42300
C113        C  0.21235742  0.44041052  0.41004826     1.09200
C114        C  0.28834600  0.06757766  0.41705728     1.09300
C115        C  0.21467666  0.07434113  0.40941340     1.09300
C116        C  0.28987056  0.44350485  0.41209558     1.09200
O117        O  0.03540632  0.17140883  0.20623997    -0.80400
O118        O  0.46711463  0.18101594  0.28626506    -0.80400
O119        O  0.47202819  0.13817694  0.17971441    -0.80400
O120        O  0.03303038  0.14390399  0.31334804    -0.80400
O121        O  0.46932660  0.18165011  0.21169265    -0.80500
O122        O  0.03834672  0.18103817  0.27510802    -0.80400
O123        O  0.47223633  0.13855049  0.31708971    -0.80400
O124        O  0.03244753  0.12586968  0.17865715    -0.80400
C125        C  0.03873217  0.15620234  0.17985621     1.09300
C126        C  0.46208979  0.16697922  0.31325387     1.09200
C127        C  0.46840584  0.16849798  0.18302134     1.09300
C128        C  0.04260435  0.17227383  0.30417452     1.09200
O129        O  0.07314524  0.12399837  0.27756164    -0.80400
O130        O  0.43091997  0.12599999  0.21714166    -0.80500
O131        O  0.03034657  0.06926580  0.21799376    -0.80400
O132        O  0.47053955  0.07857633  0.28415851    -0.80400
O133        O  0.43441025  0.11754087  0.27811213    -0.80400
O134        O  0.06813977  0.10933202  0.21799374    -0.80400
O135        O  0.04189372  0.08049117  0.28346970    -0.80300
O136        O  0.45779537  0.08086096  0.21603622    -0.80400
Co137      Co  0.04869797  0.14620262  0.24396951     1.51500
Co138      Co  0.45605919  0.15153944  0.24869328     1.51700
Co139      Co  0.99796293  0.10118080  0.20274943     1.51600
Co140      Co  0.50536404  0.11194992  0.29514637     1.51500
O141        O  0.50254422  0.13056489  0.24837518    -1.42300
C142        C  0.07019116  0.09455970  0.28441554     1.09200
C143        C  0.43123134  0.09605134  0.21201017     1.09300
C144        C  0.06009575  0.07913779  0.21450299     1.09300
C145        C  0.44120198  0.08829286  0.28562014     1.09200
O146        O  0.02580576  0.36757741  0.18392945    -0.80400
O147        O  0.46527142  0.35867162  0.31871307    -0.80400
O148        O  0.03955867  0.32545350  0.29196784    -0.80400
O149        O  0.46125542  0.32678149  0.21028562    -0.80400
O150        O  0.02472701  0.36679295  0.32199203    -0.80500
O151        O  0.46499313  0.37183820  0.18246412    -0.80400
O152        O  0.46148706  0.31990562  0.28084144    -0.80400
O153        O  0.03968380  0.32646171  0.21479352    -0.80400
C154        C  0.03833225  0.33993297  0.18707386     1.09300
C155        C  0.46012695  0.32895459  0.31036651     1.09200
C156        C  0.03652970  0.33901546  0.31968443     1.09300
C157        C  0.45939621  0.34151322  0.18346308     1.09200
O158        O  0.46212794  0.42901621  0.22037011    -0.80400
O159        O  0.03162324  0.42513481  0.28900170    -0.80500
O160        O  0.06331517  0.38270170  0.22983025    -0.80400
O161        O  0.42610780  0.37833442  0.28327746    -0.80400
O162        O  0.45899763  0.42151997  0.28804386    -0.80400
O163        O  0.03263916  0.42528837  0.22019012    -0.80400
O164        O  0.42656324  0.38698513  0.22193852    -0.80300
O165        O  0.06481347  0.38439967  0.27898112    -0.80400
Co166      Co  0.99460441  0.39676514  0.20643960     1.51500
Co167      Co  0.99352633  0.39363555  0.29877645     1.51700
Co168      Co  0.03340029  0.35442032  0.25396943     1.51600
Co169      Co  0.44754064  0.35289312  0.24914515     1.51500
O170        O  0.99095830  0.37431429  0.25182161    -1.42300
C171        C  0.43267490  0.41737450  0.21784458     1.09200
C172        C  0.06060652  0.41353003  0.28906430     1.09300
C173        C  0.06027742  0.41134691  0.21921799     1.09300
C174        C  0.43058665  0.40827680  0.29001751     1.09200
C175        C  0.37190197  0.40810732  0.30237029    -0.12500
C176        C  0.40170755  0.42582848  0.30081947     0.04500
C177        C  0.40271501  0.45856137  0.31057280    -0.07800
C178        C  0.37403600  0.47265262  0.32128878    -0.08500
C179        C  0.34357730  0.45578218  0.31959406    -0.03100
C180        C  0.34308186  0.42273959  0.31071175     0.03700
N181        N  0.31538092  0.40189541  0.31626971     0.66200
H182        H  0.37056438  0.38224436  0.29699330     0.15100
H183        H  0.37604359  0.49610470  0.33270435     0.14800
N184        N  0.43278922  0.47704073  0.31155142     0.73900
O185        O  0.31455674  0.38730287  0.34272494    -0.39500
O186        O  0.30105835  0.38858053  0.29240606    -0.39500
O187        O  0.44369228  0.48937019  0.28588385    -0.40200
O188        O  0.44683929  0.95670673  0.34940282    -0.40200
C189        C  0.11207406  0.44918962  0.28046896    -0.12500
C190        C  0.09080030  0.43160847  0.30138680     0.04500
C191        C  0.10343761  0.42374872  0.33186435    -0.07800
C192        C  0.13499951  0.43370525  0.34078058    -0.08500
C193        C  0.15605466  0.45109163  0.32018812    -0.03100
C194        C  0.14478230  0.45820135  0.28929044     0.03700
N195        N  0.16594107  0.47545584  0.26753886     0.66200
H196        H  0.10328119  0.45609774  0.25731649     0.15100
H197        H  0.14233842  0.42935247  0.36543250     0.14800
N198        N  0.08388612  0.40848079  0.35595560     0.73900
O199        O  0.19137960  0.46216263  0.25778863    -0.39500
O200        O  0.16545697  0.50600812  0.26706924    -0.39500
O201        O  0.09198268  0.38079929  0.36530421    -0.40200
O202        O  0.07004291  0.42687044  0.37583329    -0.40200
C203        C  0.38066644  0.05189148  0.34464350    -0.12500
C204        C  0.35214846  0.04886077  0.32551378     0.04500
C205        C  0.35595139  0.05144219  0.29202918    -0.07800
C206        C  0.38658420  0.06052069  0.27916577    -0.08500
C207        C  0.41390719  0.06757855  0.29874854    -0.03100
C208        C  0.41104354  0.06125045  0.33182333     0.03700
N209        N  0.43836448  0.06432090  0.35308856     0.66200
H210        H  0.37971398  0.04629932  0.36993938     0.15100
H211        H  0.38893634  0.06203142  0.25447264     0.14800
N212        N  0.32969869  0.04358977  0.27043294     0.73900
O213        O  0.44032248  0.08860821  0.37180618    -0.39500
O214        O  0.45246418  0.03883085  0.36112023    -0.39500
O215        O  0.31002049  0.06525622  0.26309144    -0.40200
O216        O  0.33084902  0.01815426  0.25325683    -0.40200
C217        C  0.15979018  0.07358182  0.29519555    -0.12500
C218        C  0.15731443  0.05008308  0.31905936     0.04500
C219        C  0.12542740  0.04087016  0.33057246    -0.07800
C220        C  0.09775295  0.05517773  0.31820083    -0.08500
C221        C  0.10027866  0.07863243  0.29458588    -0.03100
C222        C  0.13195198  0.08837543  0.28332166     0.03700
N223        N  0.13688122  0.11404101  0.26075526     0.66200
H224        H  0.18363022  0.08188657  0.28688823     0.15100
H225        H  0.07396195  0.04794268  0.32751658     0.14800
N226        N  0.11974367  0.01645725  0.35428212     0.73900
O227        O  0.14279782  0.10665935  0.23183216    -0.39500
O228        O  0.14694599  0.14146998  0.27130590    -0.39500
O229        O  0.11771178  0.02525774  0.38333322    -0.40200
O230        O  0.10320179  0.99157746  0.34566910    -0.40200
C231        C  0.37355827  0.42838429  0.22324310    -0.12500
C232        C  0.40365553  0.43685553  0.20867463     0.04500
C233        C  0.40250243  0.45578376  0.18059619    -0.07800
C234        C  0.37213734  0.46401968  0.16765171    -0.08500
C235        C  0.34213247  0.45542207  0.18221385    -0.03100
C236        C  0.34333660  0.43807020  0.21113401     0.03700
N237        N  0.31424618  0.42684134  0.22669746     0.66200
H238        H  0.37311586  0.41114498  0.24248419     0.15100
H239        H  0.37194289  0.47550014  0.14451243     0.14800
N240        N  0.43114931  0.46302834  0.16225511     0.73900
O241        O  0.30534980  0.39730486  0.22362984    -0.39500
O242        O  0.30316169  0.44340254  0.24971456    -0.39500
O243        O  0.43526541  0.44790474  0.13602367    -0.40200
O244        O  0.44583512  0.49014198  0.16664539    -0.40200
C245        C  0.12262810  0.45850341  0.16959113    -0.12500
C246        C  0.15202534  0.44551365  0.18105156     0.04500
C247        C  0.15026260  0.42048449  0.20402558    -0.07800
C248        C  0.11991076  0.41139693  0.21621999    -0.08500
C249        C  0.09068867  0.42554074  0.20591639    -0.03100
C250        C  0.09215363  0.44857355  0.18128731     0.03700
N251        N  0.06361666  0.45905039  0.16493946     0.66200
H252        H  0.12316668  0.47634608  0.15053751     0.15100
H253        H  0.11946991  0.39245722  0.23420016     0.14800
N254        N  0.17764551  0.40194750  0.21381378     0.73900
O255        O  0.05488417  0.48791303  0.16890345    -0.39500
O256        O  0.05540847  0.44469166  0.13908782    -0.39500
O257        O  0.18513800  0.40203754  0.24327669    -0.40200
O258        O  0.18383635  0.37661540  0.19797399    -0.40200
C259        C  0.40227084  0.05849725  0.17436372    -0.12500
C260        C  0.40053621  0.08164848  0.19868106     0.04500
C261        C  0.36933421  0.09428015  0.20638241    -0.07800
C262        C  0.34085299  0.07865157  0.19473498    -0.08500
C263        C  0.34254173  0.05408328  0.17165231    -0.03100
C264        C  0.37402982  0.04657714  0.15902229     0.03700
N265        N  0.37830751  0.02731279  0.13051466     0.66200
H266        H  0.42585739  0.05145579  0.16542686     0.15100
H267        H  0.31732743  0.08759504  0.20179979     0.14800
N268        N  0.36587088  0.12399262  0.22412697     0.73900
O269        O  0.37220033  0.56097652  0.10469280    -0.39500
O270        O  0.39767799  0.51678806  0.11353264    -0.39500
O271        O  0.36105951  0.14958680  0.20851995    -0.40200
O272        O  0.35679363  0.12278136  0.25310004    -0.40200
C273        C  0.13871796  0.03348930  0.20688982    -0.12500
C274        C  0.14719429  0.04008471  0.17483591     0.04500
C275        C  0.12186307  0.05222071  0.15470001    -0.07800
C276        C  0.09327879  0.06375864  0.16822110    -0.08500
C277        C  0.08557824  0.05842778  0.20027163    -0.03100
C278        C  0.10689947  0.03980786  0.21861089     0.03700
N279        N  0.09475648  0.02312826  0.24624343     0.66200
H280        H  0.15546174  0.02013781  0.22128892     0.15100
H281        H  0.07594662  0.07564005  0.15296436     0.14800
N282        N  0.12223765  0.04940539  0.12029388     0.73900
O283        O  0.11436454  0.01406329  0.26725179    -0.39500
O284        O  0.06616127  0.01088038  0.24600926    -0.39500
O285        O  0.10981131  0.02381403  0.10768539    -0.40200
O286        O  0.12266367  0.07491909  0.10381960    -0.40200
C287        C  0.28027652  0.36375107  0.08399065    -0.12500
C288        C  0.28682166  0.39419324  0.06875960     0.04500
C289        C  0.30107022  0.39321792  0.03800705    -0.07800
C290        C  0.31045361  0.36346805  0.02470192    -0.08500
C291        C  0.30565087  0.33351042  0.04025073    -0.03100
C292        C  0.28916447  0.33377043  0.06979901     0.03700
N293        N  0.28334262  0.30397698  0.08647049     0.66200
H294        H  0.26863369  0.36316746  0.10737467     0.15100
H295        H  0.32343933  0.36417569  0.00237718     0.14800
N296        N  0.30769154  0.42213012  0.02022715     0.73900
O297        O  0.30588224  0.29289544  0.10347891    -0.39500
O298        O  0.26074391  0.28480507  0.07659044    -0.39500
O299        O  0.33667771  0.43319988  0.01880134    -0.40200
O300        O  0.28775248  0.42976644  0.99863023    -0.40200
C301        C  0.30455808  0.14954278  0.06548780    -0.12500
C302        C  0.33121570  0.14702723  0.04584374     0.04500
C303        C  0.34047859  0.11520697  0.03605878    -0.07800
C304        C  0.32123452  0.08748660  0.04489112    -0.08500
C305        C  0.29424502  0.09032751  0.06527054    -0.03100
C306        C  0.28660694  0.12247853  0.07564076     0.03700
N307        N  0.26159592  0.12960464  0.09787167     0.66200
H308        H  0.29790341  0.17335523  0.07439351     0.15100
H309        H  0.32921307  0.06349949  0.03807948     0.14800
N310        N  0.37038115  0.10985036  0.01966985     0.73900
O311        O  0.26884796  0.12874839  0.12741756    -0.39500
O312        O  0.24216068  0.15094089  0.08904693    -0.39500
O313        O  0.39528734  0.10464826  0.03649973    -0.40200
O314        O  0.36916268  0.09848275  0.99134107    -0.40200
C315        C  0.34053990  0.42501155  0.44082367    -0.12500
C316        C  0.30926696  0.41785417  0.42792697     0.04500
C317        C  0.30046030  0.38465555  0.42383182    -0.07800
C318        C  0.31948474  0.36039864  0.43529744    -0.08500
C319        C  0.34936709  0.36657632  0.44955279    -0.03100
C320        C  0.36118245  0.39978189  0.45081762     0.03700
N321        N  0.39422412  0.40853677  0.45894768     0.66200
H322        H  0.34972317  0.45003759  0.44148492     0.15100
H323        H  0.31012900  0.33561544  0.43194380     0.14800
N324        N  0.27147266  0.37328029  0.40883236     0.73900
O325        O  0.41417585  0.41298024  0.43618426    -0.39500
O326        O  0.39991274  0.42303264  0.48541760    -0.39500
O327        O  0.27455626  0.36082696  0.38122202    -0.40200
O328        O  0.25197515  0.35903289  0.42756749    -0.40200
C329        C  0.28655853  0.10873238  0.46276876    -0.12500
C330        C  0.30275492  0.09527464  0.43623892     0.04500
C331        C  0.32800230  0.11398219  0.42200728    -0.07800
C332        C  0.33387542  0.14613380  0.43099780    -0.08500
C333        C  0.31696517  0.16106743  0.45598840    -0.03100
C334        C  0.29327834  0.14155587  0.47315671     0.03700
N335        N  0.27531099  0.15409683  0.50011449     0.66200
H336        H  0.26692721  0.09453942  0.47369560     0.15100
H337        H  0.35363104  0.15933135  0.41898424     0.14800
N338        N  0.34881776  0.10071469  0.39823620     0.73900
O339        O  0.25542931  0.13582463  0.51520622    -0.39500
O340        O  0.27886080  0.18338741  0.50906374    -0.39500
O341        O  0.34577692  0.11022552  0.36962608    -0.40200
O342        O  0.37628310  0.09140941  0.40745166    -0.40200
C343        C  0.45158871  0.28729256  0.38974461    -0.12500
C344        C  0.42054850  0.29744258  0.39812309     0.04500
C345        C  0.40100461  0.31138464  0.37386789    -0.07800
C346        C  0.41336888  0.31643203  0.34313654    -0.08500
C347        C  0.44500449  0.30831495  0.33529817     0.02300
C348        C  0.46363348  0.29165687  0.35815318     0.03700
N349        N  0.49408311  0.27812649  0.34945001     0.66200
H350        H  0.46574978  0.27460735  0.40740344     0.15100
H351        H  0.39891438  0.32955774  0.32596356     0.14800
N352        N  0.36919387  0.32294226  0.38017195     0.73900
O353        O  0.01028458  0.26749494  0.36947478    -0.39500
O354        O  0.50022794  0.27165699  0.32033200    -0.39500
O355        O  0.36599841  0.35332585  0.38169613    -0.40200
O356        O  0.34487693  0.30526859  0.37167828    -0.40200
C357        C  0.40553412  0.32945072  0.11079925    -0.12500
C358        C  0.42561036  0.31339026  0.08859983     0.04500
C359        C  0.45725497  0.30522726  0.09900297    -0.07800
C360        C  0.46706493  0.31151259  0.13123952    -0.08500
C361        C  0.44631231  0.32638497  0.15335649    -0.03100
C362        C  0.41542935  0.33558292  0.14267762     0.03700
N363        N  0.39286694  0.34898759  0.16493107     0.66200
H364        H  0.38094564  0.33545531  0.10394359     0.15100
H365        H  0.49148770  0.30580425  0.13868375     0.14800
N366        N  0.48011370  0.29124426  0.07747216     0.73900
O367        O  0.38684128  0.37881018  0.16374760    -0.39500
O368        O  0.38343339  0.33253595  0.18885865    -0.39500
O369        O  0.49786702  0.31013944  0.06081070    -0.40200
O370        O  0.49017522  0.26328242  0.08337302    -0.40200
C371        C  0.41200085  0.22097829  0.37072338    -0.12500
C372        C  0.42076602  0.20777996  0.40112484     0.04500
C373        C  0.43882735  0.17954185  0.40063497    -0.07800
C374        C  0.44748776  0.16533989  0.37141226    -0.08500
C375        C  0.44388866  0.18088921  0.34165735    -0.03100
C376        C  0.42475126  0.20862665  0.34124195     0.03700
N377        N  0.41638326  0.22268291  0.31111227     0.66200
H378        H  0.39570589  0.24108361  0.36982587     0.15100
H379        H  0.46036930  0.14304615  0.37272580     0.14800
N380        N  0.44890138  0.16453101  0.42965797     0.73900
O381        O  0.39586909  0.20769496  0.29321168    -0.39500
O382        O  0.43594005  0.24313705  0.29857240    -0.39500
O383        O  0.47752436  0.17047516  0.43978274    -0.40200
O384        O  0.43399127  0.13892298  0.43864407    -0.40200
C385        C  0.46029408  0.18996071  0.09247403    -0.12500
C386        C  0.43854117  0.21523446  0.09371794     0.04500
C387        C  0.42837816  0.22581014  0.12520941    -0.07800
C388        C  0.44284744  0.21375842  0.15323518    -0.08500
C389        C  0.46147286  0.18615486  0.15204013    -0.03100
C390        C  0.46840070  0.17294737  0.12056653     0.03700
N391        N  0.47704051  0.13973632  0.11578838     0.66200
H392        H  0.46587715  0.17935479  0.06916949     0.15100
H393        H  0.43497938  0.22270970  0.17653038     0.14800
N394        N  0.39947494  0.24369727  0.13024540     0.73900
O395        O  0.45535816  0.11789001  0.12070819    -0.39500
O396        O  0.49916184  0.13347600  0.09587268    -0.39500
O397        O  0.37255433  0.22794221  0.12997116    -0.40200
O398        O  0.40162737  0.26876241  0.14787855    -0.40200
C399        C  0.18830416  0.35076829  0.42097215    -0.12500
C400        C  0.17614403  0.34989120  0.45193893     0.04500
C401        C  0.17217980  0.38041389  0.46844761    -0.07800
C402        C  0.18719789  0.40907236  0.45620740    -0.08500
C403        C  0.19847495  0.40980554  0.42456194    -0.03100
C404        C  0.19484994  0.38026952  0.40575089     0.03700
N405        N  0.19533000  0.37920087  0.37116525     0.66200
H406        H  0.19101838  0.32839212  0.40743713     0.15100
H407        H  0.18640521  0.43163695  0.46989424     0.14800
N408        N  0.14927719  0.38419338  0.49418220     0.73900
O409        O  0.21963120  0.36799761  0.35692708    -0.39500
O410        O  0.16833070  0.37676715  0.35671756    -0.39500
O411        O  0.15013622  0.39446921  0.01904377    -0.40200
O412        O  0.11936032  0.37978943  0.48787027    -0.40200
C413        C  0.15686184  0.13930709  0.43442314    -0.12500
C414        C  0.17793243  0.16431245  0.44605936     0.04500
C415        C  0.21124357  0.16209425  0.43970118    -0.07800
C416        C  0.22309578  0.13212900  0.42852002    -0.08500
C417        C  0.20205728  0.10440793  0.42411970    -0.03100
C418        C  0.16848105  0.11024681  0.42261730     0.03700
N419        N  0.14559753  0.08838272  0.40713536     0.66200
H420        H  0.13068510  0.14199912  0.43413827     0.15100
H421        H  0.24809541  0.13125288  0.42079048     0.14800
N422        N  0.23138252  0.19107729  0.43858700     0.73900
O423        O  0.12476549  0.07377016  0.42448415    -0.39500
O424        O  0.13788815  0.09444566  0.37842870    -0.39500
O425        O  0.24107932  0.20425098  0.46456755    -0.40200
O426        O  0.23002626  0.20845916  0.41379129    -0.40200
C427        C  0.21557327  0.38632796  0.04186837    -0.12500
C428        C  0.19949702  0.39658528  0.06983028     0.04500
C429        C  0.18034898  0.37324765  0.08667183    -0.07800
C430        C  0.17917424  0.34092230  0.07711266    -0.08500
C431        C  0.19222311  0.33102356  0.04790556    -0.03100
C432        C  0.21218978  0.35354758  0.03066935     0.03700
N433        N  0.23077355  0.34313355  0.00348084     0.66200
H434        H  0.23144355  0.40352994  0.02946083     0.15100
H435        H  0.16346991  0.32425204  0.09051181     0.14800
N436        N  0.16060284  0.38183814  0.11337366     0.73900
O437        O  0.24398041  0.36402771  0.98526215    -0.39500
O438        O  0.23936571  0.31398672  0.00136210    -0.39500
O439        O  0.13089570  0.38697288  0.10828651    -0.40200
O440        O  0.16853747  0.37107943  0.14036841    -0.40200
C441        C  0.17534029  0.14624537  0.06958965    -0.12500
C442        C  0.16531506  0.14459655  0.03736940     0.04500
C443        C  0.16392065  0.11281168  0.02276096    -0.07800
C444        C  0.18037528  0.08684956  0.03744895    -0.08500
C445        C  0.19007832  0.08858326  0.06971017    -0.03100
C446        C  0.18337883  0.11826224  0.08674822     0.03700
N447        N  0.18137760  0.12044849  0.12135317     0.66200
H448        H  0.17288758  0.16888774  0.08292302     0.15100
H449        H  0.18193959  0.06363796  0.02503138     0.14800
N450        N  0.14211807  0.10433416  0.99677015     0.73900
O451        O  0.20524846  0.13222732  0.13718623    -0.39500
O452        O  0.15356706  0.12258933  0.13390300    -0.39500
O453        O  0.15480843  0.08224320  0.48133988    -0.40200
O454        O  0.11355179  0.11473834  0.99717020    -0.40200
C455        C  0.04379230  0.31947329  0.40992794    -0.12500
C456        C  0.07025462  0.29921285  0.41023853     0.04500
C457        C  0.08746914  0.29505815  0.38006150    -0.07800
C458        C  0.07393536  0.30489686  0.35092807    -0.08500
C459        C  0.04747370  0.32489643  0.35073686    -0.03100
C460        C  0.03393535  0.33417499  0.38117166     0.03700
N461        N  0.01115243  0.35954418  0.38389766     0.66200
H462        H  0.03204121  0.32576634  0.43238784     0.15100
H463        H  0.08694355  0.30071966  0.32860469     0.14800
N464        N  0.12160583  0.28921904  0.37867422     0.73900
O465        O  0.98139686  0.35210007  0.38735914    -0.39500
O466        O  0.02134748  0.38720195  0.39358261    -0.39500
O467        O  0.13169009  0.26827044  0.35898004    -0.40200
O468        O  0.14050218  0.31299482  0.38544811    -0.40200
C469        C  0.07845066  0.30370637  0.16062618    -0.12500
C470        C  0.05332792  0.32564916  0.15754926     0.04500
C471        C  0.04513428  0.33586807  0.12587260    -0.07800
C472        C  0.05843706  0.32074575  0.09888295    -0.08500
C473        C  0.08283164  0.29822853  0.10180314    -0.03100
C474        C  0.09434783  0.29123622  0.13339137     0.03700
N475        N  0.12261369  0.27257625  0.13870564     0.66200
H476        H  0.08705306  0.29743747  0.18441170     0.15100
H477        H  0.05100177  0.32847993  0.07515511     0.14800
N478        N  0.02672661  0.36409674  0.11999518     0.73900
O479        O  0.14928957  0.28768531  0.14449213    -0.39500
O480        O  0.11890563  0.24383610  0.14868656    -0.39500
O481        O  0.04240759  0.38951598  0.11188770    -0.40200
O482        O  0.50610450  0.36925963  0.11412745    -0.40200
C483        C  0.07063343  0.21228767  0.38175990    -0.12500
C484        C  0.10417631  0.20803337  0.38139720     0.04500
C485        C  0.11821327  0.19619131  0.35252568    -0.07800
C486        C  0.09805329  0.18844516  0.32555521    -0.08500
C487        C  0.06407255  0.19142704  0.32699423    -0.03100
C488        C  0.05102277  0.20330113  0.35564758     0.03700
N489        N  0.01768230  0.19841147  0.36160255     0.66200
H490        H  0.05886953  0.22087984  0.40348231     0.15100
H491        H  0.10870319  0.17764697  0.30435146     0.14800
N492        N  0.15199642  0.18950536  0.35053086     0.73900
O493        O  0.51307780  0.16697679  0.37816123    -0.39500
O494        O  0.50190610  0.21002673  0.35043423    -0.39500
O495        O  0.16038157  0.16043526  0.35352916    -0.40200
O496        O  0.17030887  0.20884801  0.33496165    -0.40200
C497        C  0.06077785  0.15136169  0.12533603    -0.12500
C498        C  0.04975010  0.17184816  0.14982881     0.04500
C499        C  0.04776721  0.20527756  0.14383576    -0.07800
C500        C  0.05570102  0.21704113  0.11299100    -0.08500
C501        C  0.06579746  0.19609423  0.08813766    -0.03100
C502        C  0.06781113  0.16282093  0.09476722     0.03700
N503        N  0.07896114  0.14016445  0.07140179     0.66200
H504        H  0.06343684  0.12564760  0.12950608     0.15100
H505        H  0.05539949  0.24264243  0.10890322     0.14800
N506        N  0.04012412  0.22752375  0.16924855     0.73900
O507        O  0.10803173  0.13180044  0.07353114    -0.39500
O508        O  0.05851861  0.12047747  0.05847684    -0.39500
O509        O  0.55946336  0.24017884  0.19116056    -0.40200
O510        O  0.50835954  0.23905202  0.17757710    -0.40200
O511        O  0.07257791  0.21902800  0.53224785    -0.80400
O512        O  0.06555045  0.28699323  0.97233966    -0.80400
O513        O  0.12471036  0.27786870  0.57265728    -0.80400
O514        O  0.14083515  0.23500978  0.91182462    -0.80400
O515        O  0.08031163  0.28528107  0.54369742    -0.80500
O516        O  0.10156193  0.20768618  0.93989687    -0.80400
O517        O  0.10315890  0.27358686  0.93814190    -0.80400
O518        O  0.11503047  0.21383549  0.56422857    -0.80400
C519        C  0.08467510  0.21143332  0.55925929     1.09300
C520        C  0.07572989  0.28487865  0.94296663     1.09200
C521        C  0.09524532  0.28616491  0.57104556     1.09300
C522        C  0.11512685  0.21620873  0.91196926     1.09200
O523        O  0.12690091  0.18888864  0.96245511    -0.80400
O524        O  0.14223113  0.31592736  0.53149908    -0.80500
O525        O  0.17056865  0.20580079  0.52916971    -0.80400
O526        O  0.16655927  0.28913325  0.95623053    -0.80400
O527        O  0.12528787  0.31956838  0.96992658    -0.80400
O528        O  0.12532751  0.17782154  0.51400769    -0.80400
O529        O  0.17253715  0.21812788  0.96664877    -0.80300
O530        O  0.18130979  0.27922304  0.53341175    -0.80400
Co531      Co  0.09806087  0.21252840  0.49157633     1.51500
Co532      Co  0.10293255  0.29650739  0.00469448     1.51700
Co533      Co  0.14784543  0.24488022  0.54589158     1.51600
Co534      Co  0.13790872  0.24797094  0.95652083     1.51500
O535        O  0.12620855  0.25318828  0.50178326    -1.42300
C536        C  0.15822176  0.19113997  0.95939241     1.09200
C537        C  0.17195746  0.30866267  0.53584113     1.09300
C538        C  0.15437123  0.17848387  0.52610501     1.09300
C539        C  0.15401473  0.31718428  0.96031493     1.09200
O540        O  0.39255466  0.22649034  0.56975963    -0.80400
O541        O  0.37375039  0.28266918  0.93370823    -0.80400
O542        O  0.42218050  0.22120187  0.95812023    -0.80400
O543        O  0.42601931  0.30174780  0.52832870    -0.80400
O544        O  0.37557045  0.22908790  0.93067702    -0.80500
O545        O  0.38794085  0.28854241  0.56529578    -0.80400
O546        O  0.42112912  0.28419386  0.95827910    -0.80400
O547        O  0.43363825  0.22205817  0.53500824    -0.80400
C548        C  0.42250116  0.22313596  0.56439460     1.09300
C549        C  0.40497890  0.28739804  0.93200624     1.09200
C550        C  0.40537291  0.21995494  0.93152165     1.09300
C551        C  0.41655854  0.29952296  0.55777241     1.09200
O552        O  0.32337764  0.28110255  0.53509252    -0.80400
O553        O  0.32401662  0.20898202  0.97242080    -0.80500
O554        O  0.37820359  0.18192935  0.53399886    -0.80400
O555        O  0.39135319  0.33856987  0.97878878    -0.80400
O556        O  0.35230492  0.30519913  0.95642509    -0.80400
O557        O  0.33354791  0.20996998  0.53858720    -0.80400
O558        O  0.36096442  0.31802340  0.52458382    -0.80300
O559        O  0.36939757  0.18190698  0.96965161    -0.80400
Co560      Co  0.35917763  0.25160591  0.54904204     1.51500
Co561      Co  0.34576428  0.25244059  0.96245219     1.51700
Co562      Co  0.40073665  0.20723473  0.50019732     1.51600
Co563      Co  0.38899031  0.29446581  0.99332766     1.51500
O564        O  0.38061734  0.25142090  0.50585239    -1.42300
C565        C  0.33217896  0.31100270  0.53310267     1.09200
C566        C  0.33853308  0.18239283  0.96817358     1.09300
C567        C  0.34808021  0.18262070  0.53922120     1.09300
C568        C  0.36546616  0.33502381  0.96157740     1.09200
O569        O  0.20832012  0.03055901  0.67318700    -0.80400
O570        O  0.28317727  0.47068482  0.67677849    -0.80400
O571        O  0.17971676  0.46324139  0.63074313    -0.80400
O572        O  0.31747461  0.03094790  0.63132590    -0.80400
O573        O  0.21148108  0.46543466  0.67377642    -0.80500
O574        O  0.28493162  0.03256792  0.67381096    -0.80400
O575        O  0.31796755  0.47397338  0.63613915    -0.80400
O576        O  0.17878053  0.02497007  0.62888904    -0.80400
C577        C  0.18043554  0.03149436  0.65851970     1.09300
C578        C  0.31231246  0.46929069  0.66614491     1.09200
C579        C  0.18341750  0.46045323  0.66091958     1.09300
C580        C  0.31363851  0.03512324  0.66114599     1.09200
O581        O  0.27816197  0.06758089  0.61578816    -0.80400
O582        O  0.22047886  0.42870105  0.61516144    -0.80500
O583        O  0.21401762  0.03533992  0.57271760    -0.80400
O584        O  0.28287877  0.45974486  0.57504444    -0.80400
O585        O  0.28243802  0.43106704  0.61923019    -0.80400
O586        O  0.21662327  0.06694977  0.61619584    -0.80400
O587        O  0.28320978  0.03509496  0.57311245    -0.80300
O588        O  0.21607689  0.46027152  0.57222437    -0.80400
Co589      Co  0.24727549  0.04426842  0.64495211     1.51500
Co590      Co  0.24908083  0.45378843  0.64596938     1.51700
Co591      Co  0.20284514  0.99602316  0.60056517     1.51600
Co592      Co  0.29578317  0.99859928  0.60274880     1.51500
O593        O  0.24882944  0.99795471  0.62310624    -1.42300
C594        C  0.28441976  0.06387378  0.58608748     1.09200
C595        C  0.21438831  0.43206937  0.58535206     1.09300
C596        C  0.20971571  0.06328649  0.58662393     1.09300
C597        C  0.28599014  0.43221574  0.58894785     1.09200
O598        O  0.18034416  0.03266467  0.86472121    -0.80400
O599        O  0.31820947  0.47366153  0.86599697    -0.80400
O600        O  0.28974612  0.03883011  0.82615855    -0.80400
O601        O  0.21052071  0.46848333  0.82613751    -0.80400
O602        O  0.32022286  0.02988480  0.86940162    -0.80500
O603        O  0.17985000  0.47254494  0.86969006    -0.80400
O604        O  0.28452520  0.46984854  0.82418975    -0.80400
O605        O  0.21353886  0.03942489  0.82262752    -0.80400
C606        C  0.18444727  0.03843601  0.83509763     1.09300
C607        C  0.31318161  0.46764183  0.83620513     1.09200
C608        C  0.31788132  0.03951857  0.84024615     1.09300
C609        C  0.18266651  0.46530667  0.84019425     1.09200
O610        O  0.21460135  0.46549551  0.92696087    -0.80400
O611        O  0.27998340  0.03294991  0.92625993    -0.80500
O612        O  0.21932142  0.07503745  0.87947298    -0.80400
O613        O  0.27973343  0.43414561  0.88310633    -0.80400
O614        O  0.28345383  0.46685742  0.92564293    -0.80400
O615        O  0.21450394  0.04430390  0.92274121    -0.80400
O616        O  0.21875138  0.43451854  0.88338751    -0.80300
O617        O  0.28222086  0.06964488  0.88730433    -0.80400
Co618      Co  0.20251583  0.00424386  0.89514327     1.51500
Co619      Co  0.28886360  0.99977775  0.89249344     1.51700
Co620      Co  0.25120302  0.05155789  0.85321203     1.51600
Co621      Co  0.24858914  0.45686928  0.85425940     1.51500
O622        O  0.24690773  0.00513405  0.87106086    -1.42300
C623        C  0.21097221  0.43762479  0.91248289     1.09200
C624        C  0.28646887  0.06188328  0.91676549     1.09300
C625        C  0.21250545  0.07220157  0.90890198     1.09300
C626        C  0.28748892  0.43899329  0.91247886     1.09200
O627        O  0.03838524  0.17189012  0.70389855    -0.80400
O628        O  0.46709260  0.18169520  0.78586971    -0.80400
O629        O  0.47330155  0.13759567  0.67993111    -0.80400
O630        O  0.02765864  0.14302301  0.81187485    -0.80400
O631        O  0.47115100  0.18141447  0.71147207    -0.80500
O632        O  0.03817839  0.18002860  0.77389526    -0.80400
O633        O  0.47222452  0.13948238  0.81713174    -0.80400
O634        O  0.03163784  0.12661363  0.67520316    -0.80400
C635        C  0.03902557  0.15682794  0.67702862     1.09300
C636        C  0.46191004  0.16769647  0.81294268     1.09200
C637        C  0.47034601  0.16808574  0.68298628     1.09300
C638        C  0.03890634  0.17103356  0.80337933     1.09200
O639        O  0.07101323  0.12288090  0.77689944    -0.80400
O640        O  0.43177162  0.12525805  0.71648890    -0.80500
O641        O  0.03176360  0.07067413  0.71395745    -0.80400
O642        O  0.46884913  0.07952133  0.78581060    -0.80400
O643        O  0.43433697  0.11962140  0.77774971    -0.80400
O644        O  0.07011628  0.11074572  0.71479560    -0.80400
O645        O  0.03682800  0.08105294  0.78322345    -0.80300
O646        O  0.45881649  0.08037730  0.71772590    -0.80400
Co647      Co  0.05118719  0.14661290  0.74181990     1.51500
Co648      Co  0.45664172  0.15196204  0.74815651     1.51700
Co649      Co  0.99801990  0.10174541  0.69986129     1.51600
Co650      Co  0.50481683  0.11236157  0.79602520     1.51500
O651        O  0.50274439  0.13034441  0.74895512    -1.42300
C652        C  0.06619029  0.09355680  0.78375855     1.09200
C653        C  0.43212533  0.09495553  0.71294214     1.09300
C654        C  0.06161732  0.08063447  0.71106341     1.09300
C655        C  0.43981477  0.09050092  0.78630711     1.09200
O656        O  0.02796608  0.36926256  0.68439933    -0.80400
O657        O  0.46239027  0.36029755  0.81749942    -0.80400
O658        O  0.02834886  0.32586460  0.79241641    -0.80400
O659        O  0.46211954  0.32474995  0.70987675    -0.80400
O660        O  0.02321477  0.36902148  0.82373108    -0.80500
O661        O  0.46571699  0.36954543  0.68126697    -0.80400
O662        O  0.46029339  0.32001469  0.78139223    -0.80400
O663        O  0.03214218  0.32593010  0.71573939    -0.80400
C664        C  0.03476047  0.33960362  0.68770198     1.09300
C665        C  0.45798486  0.33014830  0.81052142     1.09200
C666        C  0.02796495  0.33911498  0.82100936     1.09300
C667        C  0.46118521  0.33906560  0.68262708     1.09200
O668        O  0.45953555  0.42742489  0.71895951    -0.80400
O669        O  0.02866615  0.42759732  0.78917910    -0.80500
O670        O  0.06514013  0.38538225  0.72504993    -0.80400
O671        O  0.42394986  0.37918949  0.78054257    -0.80400
O672        O  0.45740779  0.42224395  0.78520782    -0.80400
O673        O  0.03426006  0.42821605  0.72053332    -0.80400
O674        O  0.42649166  0.38380133  0.71904057    -0.80300
O675        O  0.06282033  0.38694632  0.78632685    -0.80400
Co676      Co  0.99698905  0.39824283  0.70662405     1.51500
Co677      Co  0.99242832  0.39431793  0.79858833     1.51700
Co678      Co  0.04207770  0.35544584  0.75472370     1.51600
Co679      Co  0.44688249  0.35174803  0.74796264     1.51500
O680        O  0.99566226  0.37472836  0.75176839    -1.42300
C681        C  0.43049304  0.41454113  0.71678329     1.09200
C682        C  0.05765233  0.41677653  0.79201442     1.09300
C683        C  0.06215093  0.41509466  0.71818294     1.09300
C684        C  0.42865351  0.40951406  0.78619848     1.09200
C685        C  0.36875699  0.41569096  0.78575934    -0.12500
C686        C  0.39971155  0.42864576  0.79436070     0.04500
C687        C  0.40171475  0.45700786  0.81350662    -0.07800
C688        C  0.37304634  0.47002714  0.82580851    -0.08500
C689        C  0.34186481  0.45666600  0.81763495    -0.03100
C690        C  0.34010546  0.42948463  0.79672958     0.03700
N691        N  0.30991890  0.41280964  0.78957216     0.66200
H692        H  0.36658670  0.39346163  0.77158371     0.15100
H693        H  0.37531876  0.48975237  0.84313367     0.14800
N694        N  0.43265145  0.47124352  0.82266879     0.73900
O695        O  0.30282915  0.38708211  0.80467527    -0.39500
O696        O  0.29711852  0.41691465  0.76232961    -0.39500
O697        O  0.44750679  0.48984799  0.80325529    -0.40200
O698        O  0.44437283  0.95394276  0.84697872    -0.40200
C699        C  0.10995416  0.44964873  0.78408396    -0.12500
C700        C  0.08651041  0.43577580  0.80524233     0.04500
C701        C  0.09694429  0.42942667  0.83686821    -0.07800
C702        C  0.12875600  0.43760228  0.84654341    -0.08500
C703        C  0.15185657  0.45187124  0.82556630    -0.03100
C704        C  0.14269655  0.45690472  0.79375368     0.03700
N705        N  0.16684985  0.46829445  0.77139376     0.66200
H706        H  0.10266913  0.45497196  0.76010500     0.15100
H707        H  0.13513473  0.43325205  0.87146234     0.14800
N708        N  0.07566688  0.41485095  0.86011281     0.73900
O709        O  0.18819678  0.44870455  0.76275347    -0.39500
O710        O  0.17463952  0.49818342  0.77133834    -0.39500
O711        O  0.08080177  0.38607479  0.86855127    -0.40200
O712        O  0.06151795  0.43337324  0.87965290    -0.40200
C713        C  0.37902217  0.04544155  0.84051538    -0.12500
C714        C  0.34919628  0.04981972  0.82406828     0.04500
C715        C  0.35057324  0.06644737  0.79474021    -0.07800
C716        C  0.38083996  0.07679019  0.78236030    -0.08500
C717        C  0.41057614  0.07173854  0.79817347    -0.03100
C718        C  0.40925776  0.05642372  0.82832299     0.03700
N719        N  0.43696597  0.05638255  0.84927146     0.66200
H720        H  0.37896631  0.03471148  0.86422717     0.15100
H721        H  0.38087685  0.09162403  0.76130967     0.14800
N722        N  0.32168456  0.07637385  0.77892935     0.73900
O723        O  0.44099911  0.07966921  0.86907372    -0.39500
O724        O  0.44960123  0.02965676  0.85561998    -0.39500
O725        O  0.31270186  0.10520383  0.78291515    -0.40200
O726        O  0.31090397  0.06003776  0.75509139    -0.40200
C727        C  0.15609725  0.07162916  0.79432138    -0.12500
C728        C  0.15393433  0.04812707  0.81817037     0.04500
C729        C  0.12192210  0.03878518  0.82953425    -0.07800
C730        C  0.09395269  0.05270348  0.81682437    -0.08500
C731        C  0.09622696  0.07659127  0.79359735    -0.03100
C732        C  0.12815895  0.08653535  0.78264244     0.03700
N733        N  0.13339647  0.11284121  0.76081633     0.66200
H734        H  0.17988292  0.08016271  0.78606778     0.15100
H735        H  0.07018595  0.04534981  0.82609357     0.14800
N736        N  0.11635784  0.01498935  0.85383849     0.73900
O737        O  0.14085639  0.10631499  0.73205835    -0.39500
O738        O  0.14230162  0.14024347  0.77236194    -0.39500
O739        O  0.11479145  0.02446985  0.88268542    -0.40200
O740        O  0.09919979  0.99028484  0.84605872    -0.40200
C741        C  0.37031497  0.41293803  0.70731884    -0.12500
C742        C  0.39938672  0.43228462  0.71028035     0.04500
C743        C  0.39667329  0.46587971  0.70526216    -0.07800
C744        C  0.36640769  0.47809389  0.69540833    -0.08500
C745        C  0.33958484  0.45755823  0.68671192    -0.03100
C746        C  0.34204406  0.42432383  0.69312832     0.03700
N747        N  0.31856728  0.40084292  0.68099325     0.66200
H748        H  0.37004655  0.38740861  0.71308917     0.15100
H749        H  0.36415285  0.50378496  0.69417970     0.14800
N750        N  0.42407794  0.48777848  0.70926894     0.73900
O751        O  0.32335975  0.38866316  0.65344582    -0.39500
O752        O  0.30121665  0.38488491  0.70067780    -0.39500
O753        O  0.44111235  0.49531640  0.68506827    -0.40200
O754        O  0.42646693  0.50506822  0.73447809    -0.40200
C755        C  0.12432915  0.46473354  0.66913944    -0.12500
C756        C  0.15375939  0.45120499  0.67920843     0.04500
C757        C  0.15251507  0.42585070  0.70178541    -0.07800
C758        C  0.12233210  0.41716291  0.71541636    -0.08500
C759        C  0.09270274  0.43101027  0.70569488    -0.03100
C760        C  0.09402805  0.45474616  0.68159602     0.03700
N761        N  0.06530481  0.46611650  0.66649389     0.66200
H762        H  0.12460078  0.48220691  0.64986230     0.15100
H763        H  0.12178964  0.39794331  0.73308301     0.14800
N764        N  0.18019320  0.40616532  0.70854240     0.73900
O765        O  0.05576288  0.49403884  0.67393680    -0.39500
O766        O  0.05729908  0.45431174  0.63930984    -0.39500
O767        O  0.18121394  0.39024465  0.73436353    -0.40200
O768        O  0.20005076  0.39938534  0.68650919    -0.40200
C769        C  0.40228208  0.04753183  0.68836752    -0.12500
C770        C  0.40122493  0.07853805  0.70188484     0.04500
C771        C  0.37081410  0.09465339  0.70147654    -0.07800
C772        C  0.34220036  0.07748890  0.69274904    -0.08500
C773        C  0.34333704  0.04678755  0.67853997    -0.03100
C774        C  0.37474022  0.03347908  0.67312209     0.03700
N775        N  0.38079749  0.01048539  0.64779971     0.66200
H776        H  0.42564767  0.03630238  0.68539935     0.15100
H777        H  0.31930742  0.08997442  0.69336393     0.14800
N778        N  0.36838218  0.12889806  0.70721940     0.73900
O779        O  0.38413494  0.54825562  0.60268463    -0.39500
O780        O  0.38799348  0.50294709  0.62842773    -0.39500
O781        O  0.36855495  0.14744198  0.68317476    -0.40200
O782        O  0.35512463  0.13851577  0.73284261    -0.40200
C783        C  0.13970300  0.03485056  0.70441937    -0.12500
C784        C  0.14839904  0.04158652  0.67248671     0.04500
C785        C  0.12319295  0.05340429  0.65191000    -0.07800
C786        C  0.09466306  0.06509786  0.66511681    -0.08500
C787        C  0.08682784  0.05978862  0.69708543    -0.03100
C788        C  0.10774825  0.04096308  0.71564326     0.03700
N789        N  0.09525101  0.02418992  0.74308591     0.66200
H790        H  0.15643984  0.02177878  0.71919582     0.15100
H791        H  0.07748977  0.07702151  0.64970465     0.14800
N792        N  0.12346980  0.04978796  0.61752250     0.73900
O793        O  0.11469500  0.01392111  0.76369035    -0.39500
O794        O  0.06614034  0.01330445  0.74311087    -0.39500
O795        O  0.10987805  0.02449888  0.60543922    -0.40200
O796        O  0.12550558  0.07483088  0.60036942    -0.40200
C797        C  0.28742813  0.37023500  0.58767510    -0.12500
C798        C  0.29340577  0.40045133  0.57183345     0.04500
C799        C  0.30721065  0.39895213  0.54088482    -0.07800
C800        C  0.31673144  0.36903725  0.52794464    -0.08500
C801        C  0.31244536  0.33933447  0.54406568    -0.03100
C802        C  0.29654594  0.34007146  0.57393373     0.03700
N803        N  0.29166001  0.31060196  0.59138996     0.66200
H804        H  0.27595357  0.36996849  0.61113203     0.15100
H805        H  0.32924694  0.36947290  0.50542303     0.14800
N806        N  0.31291990  0.42752546  0.52234864     0.73900
O807        O  0.31513315  0.29984627  0.60734594    -0.39500
O808        O  0.26868802  0.29118947  0.58291003    -0.39500
O809        O  0.34137469  0.44002286  0.52144165    -0.40200
O810        O  0.29319759  0.43352394  0.49999312    -0.40200
C811        C  0.30634801  0.15342790  0.57003583    -0.12500
C812        C  0.33110347  0.15144556  0.54789523     0.04500
C813        C  0.33981145  0.11993472  0.53667102    -0.07800
C814        C  0.32201833  0.09188433  0.54675385    -0.08500
C815        C  0.29724860  0.09400561  0.56974441    -0.03100
C816        C  0.29001157  0.12579975  0.58155052     0.03700
N817        N  0.26626344  0.13187881  0.60554081     0.66200
H818        H  0.30020719  0.17707450  0.57974642     0.15100
H819        H  0.32941484  0.06816188  0.53842202     0.14800
N820        N  0.36770336  0.11530151  0.51686104     0.73900
O821        O  0.27482868  0.12979260  0.63465869    -0.39500
O822        O  0.24568684  0.15284306  0.59860663    -0.39500
O823        O  0.39397856  0.10794148  0.53041052    -0.40200
O824        O  0.36330056  0.10684068  0.48784857    -0.40200
C825        C  0.33776443  0.42104262  0.94036349    -0.12500
C826        C  0.30649708  0.41331220  0.92803626     0.04500
C827        C  0.29746997  0.38007732  0.92441786    -0.07800
C828        C  0.31720253  0.35615732  0.93590274    -0.08500
C829        C  0.34820659  0.36327167  0.94822093    -0.03100
C830        C  0.35910164  0.39637681  0.94940443     0.03700
N831        N  0.39225796  0.40539579  0.95622259     0.66200
H832        H  0.34657198  0.44619117  0.94081913     0.15100
H833        H  0.30809241  0.33118375  0.93365535     0.14800
N834        N  0.26952650  0.36889204  0.90701822     0.73900
O835        O  0.41162047  0.40867829  0.93281911    -0.39500
O836        O  0.39893844  0.42021037  0.98229909    -0.39500
O837        O  0.27384523  0.36158018  0.87778933    -0.40200
O838        O  0.24907018  0.35192441  0.92253518    -0.40200
C839        C  0.28462671  0.10307877  0.96163432    -0.12500
C840        C  0.30232930  0.08714914  0.93764395     0.04500
C841        C  0.33137062  0.10209396  0.92672696    -0.07800
C842        C  0.33981940  0.13356011  0.93594882    -0.08500
C843        C  0.32185816  0.15098767  0.95841551    -0.03100
C844        C  0.29368041  0.13517514  0.97236273     0.03700
N845        N  0.27383771  0.15026541  0.99660811     0.66200
H846        H  0.26220185  0.09148622  0.97002802     0.15100
H847        H  0.36158523  0.14444293  0.92523094     0.14800
N848        N  0.35253320  0.08640783  0.90484403     0.73900
O849        O  0.25067554  0.13430731  0.00961274    -0.39500
O850        O  0.27924474  0.17925035  0.00569472    -0.39500
O851        O  0.35594655  0.09874733  0.87734188    -0.40200
O852        O  0.37582905  0.07096525  0.91647527    -0.40200
C853        C  0.44998782  0.28675928  0.89029861    -0.12500
C854        C  0.41897311  0.29674979  0.89970139     0.04500
C855        C  0.39963865  0.31197226  0.87585199    -0.07800
C856        C  0.41197608  0.31810250  0.84515118    -0.08500
C857        C  0.44330263  0.30988793  0.83643057     0.02300
C858        C  0.46192884  0.29227210  0.85859664     0.03700
N859        N  0.49273458  0.27979432  0.84938674     0.66200
H860        H  0.46440953  0.27356025  0.90733431     0.15100
H861        H  0.39750377  0.33191249  0.82853718     0.14800
N862        N  0.36813310  0.32409636  0.88233185     0.73900
O863        O  0.00721178  0.25860246  0.86118637    -0.39500
O864        O  0.49890086  0.27414337  0.82010114    -0.39500
O865        O  0.36541995  0.35458647  0.88232134    -0.40200
O866        O  0.34359864  0.30655965  0.87420817    -0.40200
C867        C  0.41675331  0.33433297  0.60446568    -0.12500
C868        C  0.43515161  0.31373150  0.58540456     0.04500
C869        C  0.46272900  0.29930895  0.59948163    -0.07800
C870        C  0.46963381  0.30442291  0.63278597    -0.08500
C871        C  0.44966717  0.32387724  0.65192305    -0.03100
C872        C  0.42295796  0.33831750  0.63710245     0.03700
N873        N  0.40088049  0.35658929  0.65560038     0.66200
H874        H  0.39505243  0.34497047  0.59460357     0.15100
H875        H  0.49163272  0.29506226  0.64310636     0.14800
N876        N  0.48534958  0.28197089  0.58017061     0.73900
O877        O  0.39962501  0.38683967  0.65143186    -0.39500
O878        O  0.38493537  0.34299162  0.67794054    -0.39500
O879        O  0.49812143  0.29584534  0.55613704    -0.40200
O880        O  0.49903927  0.25771098  0.59178852    -0.40200
C881        C  0.41181340  0.22132102  0.87030895    -0.12500
C882        C  0.41929444  0.20720760  0.90052184     0.04500
C883        C  0.43571723  0.17772882  0.89982861    -0.07800
C884        C  0.44506206  0.16417202  0.87047850    -0.08500
C885        C  0.44309004  0.18098979  0.84114714    -0.03100
C886        C  0.42466819  0.20915026  0.84093065     0.03700
N887        N  0.41645887  0.22348510  0.81093962     0.66200
H888        H  0.39610799  0.24188128  0.86944393     0.15100
H889        H  0.45671532  0.14099487  0.87150001     0.14800
N890        N  0.44248741  0.16017534  0.92845772     0.73900
O891        O  0.39554602  0.20896419  0.79312946    -0.39500
O892        O  0.43616607  0.24382561  0.79846092    -0.39500
O893        O  0.47116609  0.16179238  0.93954656    -0.40200
O894        O  0.42473914  0.13546191  0.93480293    -0.40200
C895        C  0.46305201  0.19047954  0.59283310    -0.12500
C896        C  0.44108706  0.21544673  0.59433402     0.04500
C897        C  0.43074149  0.22594515  0.62579037    -0.07800
C898        C  0.44483611  0.21342927  0.65370519    -0.08500
C899        C  0.46382014  0.18601571  0.65221793    -0.03100
C900        C  0.47161116  0.17351753  0.62072247     0.03700
N901        N  0.48279463  0.14122673  0.61555000     0.66200
H902        H  0.46901252  0.18034451  0.56941893     0.15100
H903        H  0.43666344  0.22205395  0.67701425     0.14800
N904        N  0.40206607  0.24436823  0.63067278     0.73900
O905        O  0.46298817  0.11772243  0.62055587    -0.39500
O906        O  0.50476242  0.13703999  0.59490112    -0.39500
O907        O  0.37494147  0.22901245  0.63132888    -0.40200
O908        O  0.40460616  0.27054346  0.64661097    -0.40200
C909        C  0.18266123  0.34919814  0.92010041    -0.12500
C910        C  0.17015458  0.34815102  0.95086414     0.04500
C911        C  0.16634668  0.37828711  0.96791413    -0.07800
C912        C  0.18239904  0.40677793  0.95686655    -0.08500
C913        C  0.19523563  0.40754517  0.92581258    -0.03100
C914        C  0.19087428  0.37877061  0.90604178     0.03700
N915        N  0.19154486  0.37890399  0.87147668     0.66200
H916        H  0.18329787  0.32717942  0.90554737     0.15100
H917        H  0.18153475  0.42908173  0.97096918     0.14800
N918        N  0.14202201  0.38196776  0.99224853     0.73900
O919        O  0.21503241  0.36629231  0.85704943    -0.39500
O920        O  0.16468417  0.37960100  0.85674570    -0.39500
O921        O  0.15678029  0.40314537  0.51729195    -0.40200
O922        O  0.11286865  0.38457004  0.98313438    -0.40200
C923        C  0.15364661  0.13677353  0.93416257    -0.12500
C924        C  0.17416956  0.16232969  0.94537332     0.04500
C925        C  0.20773224  0.16001689  0.94019505    -0.07800
C926        C  0.22013679  0.13005963  0.92930815    -0.08500
C927        C  0.19943487  0.10216235  0.92407356    -0.03100
C928        C  0.16576154  0.10776828  0.92254759     0.03700
N929        N  0.14329768  0.08623318  0.90616364     0.66200
H930        H  0.12744504  0.13925749  0.93348601     0.15100
H931        H  0.24546943  0.12930489  0.92264946     0.14800
N932        N  0.22813868  0.18883524  0.94118845     0.73900
O933        O  0.12159718  0.07198653  0.92275944    -0.39500
O934        O  0.13659442  0.09277889  0.87731053    -0.39500
O935        O  0.23531674  0.20154785  0.96814339    -0.40200
O936        O  0.22886300  0.20675114  0.91670291    -0.40200
C937        C  0.22087115  0.38765331  0.54387492    -0.12500
C938        C  0.20306203  0.40159431  0.56904623     0.04500
C939        C  0.17962192  0.38182877  0.58509991    -0.07800
C940        C  0.17581778  0.34908360  0.57743275    -0.08500
C941        C  0.19164299  0.33535173  0.55110205    -0.03100
C942        C  0.21539320  0.35454150  0.53462202     0.03700
N943        N  0.23481255  0.34069395  0.50965582     0.66200
H944        H  0.23941464  0.40236167  0.53197421     0.15100
H945        H  0.15676454  0.33516817  0.58973129     0.14800
N946        N  0.15710707  0.39506980  0.60750432     0.73900
O947        O  0.24989011  0.35909211  0.49027434    -0.39500
O948        O  0.24200418  0.31111672  0.51075834    -0.39500
O949        O  0.13037912  0.40476569  0.59669434    -0.40200
O950        O  0.15812942  0.38574540  0.63629403    -0.40200
C951        C  0.17688435  0.14885972  0.57220472    -0.12500
C952        C  0.16837680  0.14779998  0.53953556     0.04500
C953        C  0.16931030  0.11664406  0.52384948    -0.07800
C954        C  0.18667177  0.09126477  0.53825296    -0.08500
C955        C  0.19484184  0.09231251  0.57086504    -0.03100
C956        C  0.18599042  0.12084084  0.58867654     0.03700
N957        N  0.18202697  0.12124445  0.62314966     0.66200
H958        H  0.17262415  0.17081161  0.58611303     0.15100
H959        H  0.19009930  0.06870418  0.52514521     0.14800
N960        N  0.14865511  0.10771793  0.49711020     0.73900
O961        O  0.20490435  0.13218232  0.64088540    -0.39500
O962        O  0.15348652  0.12222689  0.63424848    -0.39500
O963        O  0.14698312  0.07861625  0.98089498    -0.40200
O964        O  0.11975677  0.11722499  0.49661369    -0.40200
C965        C  0.03214944  0.31556849  0.91170865    -0.12500
C966        C  0.06034784  0.29735642  0.91198875     0.04500
C967        C  0.07697191  0.29427903  0.88144260    -0.07800
C968        C  0.06235886  0.30300550  0.85241650    -0.08500
C969        C  0.03546027  0.32231859  0.85215076    -0.03100
C970        C  0.02143284  0.33044577  0.88293243     0.03700
N971        N  0.99895935  0.35611602  0.88642665     0.66200
H972        H  0.02035472  0.32114682  0.93433864     0.15100
H973        H  0.07560187  0.29961987  0.83009334     0.14800
N974        N  0.11149108  0.29147444  0.87942700     0.73900
O975        O  0.97000038  0.34906053  0.89436453    -0.39500
O976        O  0.01032554  0.38412162  0.89370518    -0.39500
O977        O  0.12272319  0.27080038  0.86013723    -0.40200
O978        O  0.12846647  0.31702696  0.88483709    -0.40200
C979        C  0.07329199  0.30180468  0.66043924    -0.12500
C980        C  0.04830125  0.32389621  0.65778050     0.04500
C981        C  0.04106564  0.33531891  0.62605260    -0.07800
C982        C  0.05497847  0.32101977  0.59871645    -0.08500
C983        C  0.07970780  0.29878247  0.60135474    -0.03100
C984        C  0.09017854  0.29067766  0.63307017     0.03700
N985        N  0.11908512  0.27302242  0.63842240     0.66200
H986        H  0.08174499  0.29525753  0.68418177     0.15100
H987        H  0.04826099  0.32965058  0.57509678     0.14800
N988        N  0.02311588  0.36405951  0.62072470     0.73900
O989        O  0.14491269  0.28889556  0.64583091    -0.39500
O990        O  0.11652903  0.24345692  0.64608057    -0.39500
O991        O  0.03904389  0.39075417  0.61922308    -0.40200
O992        O  0.50338459  0.36086250  0.61050277    -0.40200
C993        C  0.06351059  0.20363427  0.88460804    -0.12500
C994        C  0.09749988  0.20610608  0.88206043     0.04500
C995        C  0.11184611  0.20002170  0.85165132    -0.07800
C996        C  0.09178401  0.19275050  0.82474777    -0.08500
C997        C  0.05785502  0.18952767  0.82800308    -0.03100
C998        C  0.04421919  0.19412886  0.85850530     0.03700
N999        N  0.01113842  0.18522687  0.86406830     0.66200
H1000       H  0.05156733  0.20793045  0.90745918     0.15100
H1001       H  0.10295884  0.18658584  0.80195793     0.14800
N1002       N  0.14624012  0.19776975  0.84798324     0.73900
O1003       O  0.51027120  0.17100971  0.87834844    -0.39500
O1004       O  0.49979942  0.21284754  0.84862546    -0.39500
O1005       O  0.15833800  0.17001418  0.84981826    -0.40200
O1006       O  0.16133256  0.21947265  0.83215945    -0.40200
C1007       C  0.06020684  0.15238986  0.62224991    -0.12500
C1008       C  0.04935493  0.17264009  0.64701164     0.04500
C1009       C  0.04673906  0.20602106  0.64133746    -0.07800
C1010       C  0.05421314  0.21806688  0.61054163    -0.08500
C1011       C  0.06501428  0.19755262  0.58567438    -0.03100
C1012       C  0.06705079  0.16419333  0.59181470     0.03700
N1013       N  0.07734439  0.14169163  0.56786531     0.66200
H1014       H  0.06291072  0.12663160  0.62614174     0.15100
H1015       H  0.05307726  0.24355552  0.60648345     0.14800
N1016       N  0.03920911  0.22794070  0.66708872     0.73900
O1017       O  0.10612981  0.13219598  0.56944494    -0.39500
O1018       O  0.05605058  0.12316348  0.55460566    -0.39500
O1019       O  0.56302361  0.23839599  0.69160599    -0.40200
O1020       O  0.51250405  0.23719031  0.67590457    -0.40200
O1021       O  0.07462246  0.71743801  0.03815502    -0.80400
O1022       O  0.06818653  0.78810443  0.47318913    -0.80400
O1023       O  0.12862646  0.77753173  0.07445136    -0.80400
O1024       O  0.14541745  0.73668646  0.41435522    -0.80400
O1025       O  0.08351687  0.78395956  0.04633139    -0.80500
O1026       O  0.10584424  0.71009610  0.44257290    -0.80400
O1027       O  0.10692785  0.77541704  0.43984162    -0.80400
O1028       O  0.11857096  0.71391794  0.06834212    -0.80400
C1029       C  0.08819147  0.71131784  0.06517644     1.09300
C1030       C  0.07907254  0.78588953  0.44414481     1.09200
C1031       C  0.09882686  0.78506797  0.07341027     1.09300
C1032       C  0.11988938  0.71764233  0.41465531     1.09200
O1033       O  0.13010393  0.69099403  0.46597292    -0.80400
O1034       O  0.14606103  0.81385410  0.03203355    -0.80500
O1035       O  0.17031050  0.70229523  0.03131383    -0.80400
O1036       O  0.16960855  0.79191269  0.45897045    -0.80400
O1037       O  0.12770179  0.82219775  0.47135829    -0.80400
O1038       O  0.12402357  0.67629978  0.01680388    -0.80400
O1039       O  0.17597341  0.72001283  0.46995212    -0.80300
O1040       O  0.18400621  0.77587076  0.03252986    -0.80400
Co1041     Co  0.09808619  0.71142483  0.99505555     1.51500
Co1042     Co  0.10438737  0.79912236  0.50598794     1.51700
Co1043     Co  0.15032964  0.74323799  0.04759139     1.51600
Co1044     Co  0.14142743  0.75021311  0.45906091     1.51500
O1045       O  0.12730287  0.75133830  0.00409731    -1.42300
C1046       C  0.16149768  0.69295283  0.46287911     1.09200
C1047       C  0.17578179  0.80561197  0.03504358     1.09300
C1048       C  0.15265605  0.67557655  0.02909250     1.09300
C1049       C  0.15678649  0.81999833  0.46245975     1.09200
O1050       O  0.38707701  0.72065243  0.06996116    -0.80400
O1051       O  0.37865676  0.78697012  0.43705372    -0.80400
O1052       O  0.41958859  0.72040130  0.45850845    -0.80400
O1053       O  0.42176339  0.79377284  0.03485036    -0.80400
O1054       O  0.37442067  0.73252398  0.43079547    -0.80500
O1055       O  0.38092840  0.78299827  0.06881984    -0.80400
O1056       O  0.42533745  0.78357608  0.46215382    -0.80400
O1057       O  0.42767539  0.71817981  0.03459771    -0.80400
C1058       C  0.41702636  0.71795884  0.06422389     1.09300
C1059       C  0.40999785  0.78793864  0.43550741     1.09200
C1060       C  0.40315874  0.72050396  0.43170162     1.09300
C1061       C  0.41028126  0.79307141  0.06350168     1.09200
O1062       O  0.31774022  0.77626585  0.03728483    -0.80400
O1063       O  0.32078305  0.71907902  0.47366939    -0.80500
O1064       O  0.37290294  0.67811515  0.03265438    -0.80400
O1065       O  0.39977633  0.84026943  0.48358083    -0.80400
O1066       O  0.35934075  0.81097534  0.45815084    -0.80400
O1067       O  0.32745402  0.70424151  0.03947201    -0.80400
O1068       O  0.35621215  0.81303544  0.02707715    -0.80300
O1069       O  0.36248942  0.68645851  0.46974751    -0.80400
Co1070     Co  0.35316006  0.74617415  0.05017421     1.51500
Co1071     Co  0.34732860  0.75892464  0.46330778     1.51700
Co1072     Co  0.39454263  0.70396306  0.99932916     1.51600
Co1073     Co  0.39243340  0.79612816  0.49632707     1.51500
O1074       O  0.37306503  0.74791470  0.00519401    -1.42300
C1075       C  0.32716253  0.80606148  0.03514896     1.09200
C1076       C  0.33207726  0.69132363  0.46784168     1.09300
C1077       C  0.34296918  0.67747487  0.03834344     1.09300
C1078       C  0.37491900  0.83940152  0.46481845     1.09200
O1079       O  0.21086443  0.52750793  0.17647096    -0.80400
O1080       O  0.28367406  0.96903131  0.17775562    -0.80400
O1081       O  0.18109491  0.95917581  0.13206831    -0.80400
O1082       O  0.31568995  0.52460818  0.12866030    -0.80400
O1083       O  0.21305857  0.96203042  0.17489959    -0.80500
O1084       O  0.28523693  0.53001938  0.17212695    -0.80400
O1085       O  0.31889507  0.97217867  0.13759635    -0.80400
O1086       O  0.17635780  0.52297528  0.13551502    -0.80400
C1087       C  0.18190619  0.52980457  0.16512962     1.09300
C1088       C  0.31289674  0.96771049  0.16760196     1.09200
C1089       C  0.18514092  0.95629677  0.16229047     1.09300
C1090       C  0.31309392  0.53258512  0.15783650     1.09200
O1091       O  0.27518254  0.56163874  0.11396037    -0.80400
O1092       O  0.22223125  0.92529566  0.11602777    -0.80500
O1093       O  0.20980055  0.52962370  0.07426319    -0.80400
O1094       O  0.28427163  0.95691185  0.07586380    -0.80400
O1095       O  0.28428081  0.92890089  0.12032747    -0.80400
O1096       O  0.21409528  0.56265087  0.11626721    -0.80400
O1097       O  0.28078491  0.52898573  0.07174438    -0.80300
O1098       O  0.21712000  0.95640524  0.07290922    -0.80400
Co1099     Co  0.24612859  0.54022353  0.14479299     1.51500
Co1100     Co  0.25040024  0.95120271  0.14679233     1.51700
Co1101     Co  0.19841368  0.49243840  0.10431937     1.51600
Co1102     Co  0.29181668  0.49234893  0.10172713     1.51500
O1103       O  0.24567430  0.49326315  0.12412465    -1.42300
C1104       C  0.28447102  0.55728754  0.08537893     1.09200
C1105       C  0.21621448  0.92823175  0.08612096     1.09300
C1106       C  0.20791088  0.55838191  0.08646703     1.09300
C1107       C  0.28727439  0.92951352  0.08999105     1.09200
O1108       O  0.18129128  0.53544449  0.36541050    -0.80400
O1109       O  0.31700394  0.98136258  0.36115182    -0.80400
O1110       O  0.28749675  0.53823108  0.32127962    -0.80400
O1111       O  0.21506563  0.96604097  0.32700576    -0.80400
O1112       O  0.31833687  0.53843157  0.36458998    -0.80500
O1113       O  0.18235065  0.97301270  0.36871093    -0.80400
O1114       O  0.28419672  0.96969500  0.32219154    -0.80400
O1115       O  0.21253978  0.53743017  0.32211190    -0.80400
C1116       C  0.18428121  0.53930675  0.33546151     1.09300
C1117       C  0.31275393  0.97077431  0.33298576     1.09200
C1118       C  0.31588325  0.54113504  0.33437820     1.09300
C1119       C  0.18681774  0.96386479  0.33986641     1.09200
O1120       O  0.21575416  0.97058739  0.42766782    -0.80400
O1121       O  0.28355497  0.54454533  0.42331711    -0.80500
O1122       O  0.22036117  0.57639862  0.37891577    -0.80400
O1123       O  0.28716949  0.94451734  0.39176156    -0.80400
O1124       O  0.31833569  0.97961443  0.42207915    -0.80400
O1125       O  0.21605984  0.54585901  0.42269279    -0.80400
O1126       O  0.22387028  0.93768565  0.38668708    -0.80300
O1127       O  0.28120178  0.57593246  0.38030080    -0.80400
Co1128     Co  0.20392209  0.50619837  0.39460013     1.51500
Co1129     Co  0.29680489  0.50794416  0.39450647     1.51700
Co1130     Co  0.25050172  0.55188099  0.35056635     1.51600
Co1131     Co  0.25260555  0.95962351  0.35696350     1.51500
O1132       O  0.25027969  0.50627297  0.37323220    -1.42300
C1133       C  0.21449439  0.94171348  0.41493520     1.09200
C1134       C  0.28701146  0.57249127  0.41014767     1.09300
C1135       C  0.21410911  0.57382456  0.40868507     1.09300
C1136       C  0.30947325  0.95032629  0.41396329     1.09200
O1137       O  0.03274194  0.67784561  0.21199791    -0.80400
O1138       O  0.46405078  0.67628173  0.28618864    -0.80400
O1139       O  0.47137359  0.63313209  0.17978691    -0.80400
O1140       O  0.02924775  0.64344252  0.31684987    -0.80400
O1141       O  0.46721110  0.67646582  0.21175082    -0.80500
O1142       O  0.03356606  0.68284663  0.28107203    -0.80400
O1143       O  0.46869474  0.63418553  0.31758006    -0.80400
O1144       O  0.03167001  0.63323976  0.18244522    -0.80400
C1145       C  0.03714215  0.66371228  0.18522503     1.09300
C1146       C  0.45901233  0.66284988  0.31350977     1.09200
C1147       C  0.46706818  0.66339025  0.18306095     1.09300
C1148       C  0.03816465  0.67240190  0.30940862     1.09200
O1149       O  0.07026024  0.62614742  0.28087740    -0.80400
O1150       O  0.43018675  0.61940085  0.21671351    -0.80500
O1151       O  0.03412580  0.57412205  0.21859959    -0.80400
O1152       O  0.46984947  0.57368720  0.28350841    -0.80400
O1153       O  0.43282267  0.61166026  0.27784257    -0.80400
O1154       O  0.06833075  0.61704351  0.22075837    -0.80400
O1155       O  0.03907040  0.58207999  0.28464859    -0.80300
O1156       O  0.45879753  0.57535271  0.21663943    -0.80400
Co1157     Co  0.04614051  0.65061217  0.24835583     1.51500
Co1158     Co  0.45401797  0.64616312  0.24858584     1.51700
Co1159     Co  0.99903078  0.60450192  0.20412148     1.51600
Co1160     Co  0.50308554  0.60815141  0.29595813     1.51500
O1161       O  0.50107661  0.62658446  0.24905481    -1.42300
C1162       C  0.06733376  0.59628035  0.28629576     1.09200
C1163       C  0.43153795  0.58927591  0.21291759     1.09300
C1164       C  0.06324719  0.58645553  0.21612094     1.09300
C1165       C  0.44019849  0.58227578  0.28425917     1.09200
O1166       O  0.02798314  0.86541207  0.18577550    -0.80400
O1167       O  0.46440941  0.85897647  0.32092222    -0.80400
O1168       O  0.03024991  0.82457729  0.29429990    -0.80400
O1169       O  0.46372936  0.82489253  0.21352638    -0.80400
O1170       O  0.02743827  0.86879668  0.32470740    -0.80500
O1171       O  0.46567665  0.86939621  0.18455395    -0.80400
O1172       O  0.46329728  0.81933014  0.28421679    -0.80400
O1173       O  0.03246887  0.82260606  0.21759131    -0.80400
C1174       C  0.03504809  0.83592201  0.18941054     1.09300
C1175       C  0.46161842  0.82874318  0.31357070     1.09200
C1176       C  0.03108019  0.83867212  0.32250142     1.09300
C1177       C  0.46172392  0.83878425  0.18620138     1.09200
O1178       O  0.45944896  0.92755206  0.22273771    -0.80400
O1179       O  0.03445867  0.92615163  0.28862366    -0.80500
O1180       O  0.06644729  0.88166076  0.22499781    -0.80400
O1181       O  0.42477823  0.87748970  0.28496917    -0.80400
O1182       O  0.45738203  0.92112435  0.28892256    -0.80400
O1183       O  0.03598107  0.92489967  0.22052169    -0.80400
O1184       O  0.42689695  0.88352603  0.22336303    -0.80300
O1185       O  0.06665060  0.88393939  0.28602132    -0.80400
Co1186     Co  0.99804100  0.89520379  0.20798142     1.51500
Co1187     Co  0.99701795  0.89478319  0.30011430     1.51700
Co1188     Co  0.04379833  0.85273277  0.25572923     1.51600
Co1189     Co  0.44823535  0.85124684  0.25173128     1.51500
O1190       O  0.99784344  0.87334182  0.25385087    -1.42300
C1191       C  0.43050577  0.91435557  0.22092321     1.09200
C1192       C  0.06297126  0.91408411  0.29118731     1.09300
C1193       C  0.06372751  0.91144186  0.21837642     1.09300
C1194       C  0.42887296  0.90792538  0.29017696     1.09200
C1195       C  0.36882124  0.91435908  0.28823850    -0.12500
C1196       C  0.39972028  0.92704847  0.29741875     0.04500
C1197       C  0.40167886  0.95609318  0.31543948    -0.07800
C1198       C  0.37296755  0.97057371  0.32548689    -0.08500
C1199       C  0.34180629  0.95830596  0.31592684    -0.03100
C1200       C  0.34015495  0.92993505  0.29660051     0.03700
N1201       N  0.30972977  0.91415854  0.28855358     0.66200
H1202       H  0.36669066  0.89144955  0.27517790     0.15100
H1203       H  0.37515296  0.99016426  0.34277401     0.14800
N1204       N  0.43248991  0.96953053  0.32604701     0.73900
O1205       O  0.30153574  0.88825718  0.30287000    -0.39500
O1206       O  0.29695801  0.91992902  0.26164726    -0.39500
O1207       O  0.44856424  0.98805722  0.30748564    -0.40200
O1208       O  0.45185514  0.47379851  0.33512167    -0.40200
C1209       C  0.11520327  0.94806411  0.28338309    -0.12500
C1210       C  0.09278158  0.93172920  0.30409459     0.04500
C1211       C  0.10440689  0.92290690  0.33472687    -0.07800
C1212       C  0.13593207  0.93169607  0.34441366    -0.08500
C1213       C  0.15776798  0.94851941  0.32423688    -0.03100
C1214       C  0.14794624  0.95581429  0.29298681     0.03700
N1215       N  0.17089598  0.97172278  0.27179990     0.66200
H1216       H  0.10716193  0.95496767  0.25995213     0.15100
H1217       H  0.14277856  0.92668260  0.36907784     0.14800
N1218       N  0.08408767  0.90673825  0.35770252     0.73900
O1219       O  0.19491803  0.95610568  0.26214175    -0.39500
O1220       O  0.17477150  0.00213648  0.27368760    -0.39500
O1221       O  0.09014545  0.87769436  0.36439648    -0.40200
O1222       O  0.07098159  0.92406338  0.37899851    -0.40200
C1223       C  0.37361989  0.55893591  0.33919682    -0.12500
C1224       C  0.34798317  0.54881008  0.31809293     0.04500
C1225       C  0.35697459  0.54017816  0.28623902    -0.07800
C1226       C  0.38980119  0.54601917  0.27616809    -0.08500
C1227       C  0.41353839  0.56046947  0.29681730    -0.03100
C1228       C  0.40571704  0.56316149  0.32933010     0.03700
N1229       N  0.43044332  0.56634565  0.35345686     0.66200
H1230       H  0.36966874  0.56120978  0.36483860     0.15100
H1231       H  0.39678314  0.53956265  0.25205004     0.14800
N1232       N  0.33408561  0.52498708  0.26420972     0.73900
O1233       O  0.43014111  0.59067365  0.37204696    -0.39500
O1234       O  0.44239992  0.54061130  0.36391453    -0.39500
O1235       O  0.30610461  0.53628825  0.26077431    -0.40200
O1236       O  0.34369169  0.50414588  0.24414776    -0.40200
C1237       C  0.15684483  0.57398228  0.29589175    -0.12500
C1238       C  0.15420536  0.54968406  0.31892746     0.04500
C1239       C  0.12238514  0.54061441  0.33040197    -0.07800
C1240       C  0.09479292  0.55537569  0.31838155    -0.08500
C1241       C  0.09743951  0.57976370  0.29567262    -0.03100
C1242       C  0.12924665  0.58993899  0.28510359     0.03700
N1243       N  0.13487163  0.61824172  0.26600593     0.66200
H1244       H  0.18078769  0.58262289  0.28816788     0.15100
H1245       H  0.07098688  0.54808704  0.32762259     0.14800
N1246       N  0.11678279  0.51675715  0.35461662     0.73900
O1247       O  0.14638187  0.61460079  0.23815106    -0.39500
O1248       O  0.14107214  0.64483418  0.28053243    -0.39500
O1249       O  0.11440790  0.52639113  0.38337595    -0.40200
O1250       O  0.10042414  0.49158113  0.34654329    -0.40200
C1251       C  0.37027148  0.91225471  0.21105413    -0.12500
C1252       C  0.39911772  0.93186902  0.21437942     0.04500
C1253       C  0.39572631  0.96557225  0.21008821    -0.07800
C1254       C  0.36562108  0.97731037  0.19910064    -0.08500
C1255       C  0.33974112  0.95629858  0.18891729    -0.03100
C1256       C  0.34227169  0.92315968  0.19589225     0.03700
N1257       N  0.31896379  0.89931955  0.18402297     0.66200
H1258       H  0.37016287  0.88678463  0.21707378     0.15100
H1259       H  0.36281842  0.00307184  0.19803716     0.14800
N1260       N  0.42177852  0.98826537  0.21733301     0.73900
O1261       O  0.32360849  0.88704331  0.15649014    -0.39500
O1262       O  0.30193907  0.88327470  0.20391524    -0.39500
O1263       O  0.44087119  0.99707955  0.19509809    -0.40200
O1264       O  0.41998123  0.00576887  0.24236572    -0.40200
C1265       C  0.12655940  0.96113000  0.17098208    -0.12500
C1266       C  0.15577327  0.94713169  0.18100144     0.04500
C1267       C  0.15421738  0.92208438  0.20411214    -0.07800
C1268       C  0.12383132  0.91311251  0.21684159    -0.08500
C1269       C  0.09447873  0.92722778  0.20677067    -0.03100
C1270       C  0.09616881  0.95129909  0.18310983     0.03700
N1271       N  0.06765884  0.96282276  0.16776096     0.66200
H1272       H  0.12698334  0.97872615  0.15178512     0.15100
H1273       H  0.12314773  0.89372360  0.23435299     0.14800
N1274       N  0.18161506  0.90281161  0.21261801     0.73900
O1275       O  0.05791774  0.99061884  0.17540835    -0.39500
O1276       O  0.05988301  0.95115120  0.14045490    -0.39500
O1277       O  0.18798747  0.89888194  0.24201444    -0.40200
O1278       O  0.19000358  0.88060862  0.19356842    -0.40200
C1279       C  0.40307562  0.55350743  0.17389441    -0.12500
C1280       C  0.40121800  0.57283318  0.20136612     0.04500
C1281       C  0.36979982  0.58187049  0.21246671    -0.07800
C1282       C  0.34178212  0.56601370  0.20000660    -0.08500
C1283       C  0.34364398  0.54611621  0.17277586    -0.03100
C1284       C  0.37480584  0.54348991  0.15739147     0.03700
N1285       N  0.37822773  0.53786528  0.12333118     0.66200
H1286       H  0.42652546  0.55081716  0.16234674     0.15100
H1287       H  0.31814208  0.57218562  0.20942200     0.14800
N1288       N  0.36538958  0.60935107  0.23336385     0.73900
O1289       O  0.38250999  0.04196185  0.10421080    -0.39500
O1290       O  0.38935347  0.99919026  0.13320540    -0.39500
O1291       O  0.36209096  0.63675373  0.22057364    -0.40200
O1292       O  0.35339910  0.60488861  0.26095484    -0.40200
C1293       C  0.13395987  0.52655820  0.20419175    -0.12500
C1294       C  0.15438835  0.54469658  0.18336564     0.04500
C1295       C  0.14366993  0.57531476  0.17408163    -0.07800
C1296       C  0.11349701  0.58636753  0.18389314    -0.08500
C1297       C  0.09236369  0.56845388  0.20394754    -0.03100
C1298       C  0.10331610  0.53807450  0.21470536     0.03700
N1299       N  0.08561288  0.52000281  0.23836390     0.66200
H1300       H  0.14155295  0.50309462  0.21206588     0.15100
H1301       H  0.10756667  0.61074410  0.17696654     0.14800
N1302       N  0.16352652  0.59660075  0.15522845     0.73900
O1303       O  0.09904448  0.51548550  0.26509219    -0.39500
O1304       O  0.06223066  0.50120146  0.22993274    -0.39500
O1305       O  0.15649921  0.59907755  0.12582610    -0.40200
O1306       O  0.17782331  0.62035449  0.16939483    -0.40200
C1307       C  0.28617687  0.86749494  0.08968465    -0.12500
C1308       C  0.29311220  0.89718750  0.07315402     0.04500
C1309       C  0.30555687  0.89444263  0.04164632    -0.07800
C1310       C  0.31260723  0.86377719  0.02872808    -0.08500
C1311       C  0.30790839  0.83470205  0.04571619    -0.03100
C1312       C  0.29321625  0.83665101  0.07611293     0.03700
N1313       N  0.28673531  0.80758054  0.09382497     0.66200
H1314       H  0.27543123  0.86814843  0.11346988     0.15100
H1315       H  0.32344724  0.86287097  0.00532297     0.14800
N1316       N  0.31249143  0.92230730  0.02241762     0.73900
O1317       O  0.30949959  0.79563082  0.10989025    -0.39500
O1318       O  0.26269611  0.78941296  0.08556900    -0.39500
O1319       O  0.34161294  0.93294176  0.02082228    -0.40200
O1320       O  0.29328651  0.92821456  0.99958547    -0.40200
C1321       C  0.32184203  0.64285111  0.08022153    -0.12500
C1322       C  0.32886458  0.64554724  0.04789346     0.04500
C1323       C  0.33054779  0.61597855  0.02936266    -0.07800
C1324       C  0.31373618  0.58764972  0.04045573    -0.08500
C1325       C  0.30305710  0.58614645  0.07234912    -0.03100
C1326       C  0.31198121  0.61318604  0.09317218     0.03700
N1327       N  0.31251761  0.61148941  0.12761351     0.66200
H1328       H  0.32586234  0.66367002  0.09624735     0.15100
H1329       H  0.31157890  0.56605453  0.02532037     0.14800
N1330       N  0.35249977  0.61270195  0.00261897     0.73900
O1331       O  0.34000275  0.61048697  0.14115395    -0.39500
O1332       O  0.28954813  0.62371699  0.14326986    -0.39500
O1333       O  0.38179787  0.62234712  0.00605819    -0.40200
O1334       O  0.34636390  0.59128729  0.98126290    -0.40200
C1335       C  0.35739712  0.92747751  0.44224994    -0.12500
C1336       C  0.32696887  0.92245447  0.42711984     0.04500
C1337       C  0.31490158  0.89025663  0.42307461    -0.07800
C1338       C  0.33142994  0.86464848  0.43552512    -0.08500
C1339       C  0.36161638  0.86908145  0.45063235    -0.03100
C1340       C  0.37504264  0.90114094  0.45363326     0.03700
N1341       N  0.40643587  0.90778249  0.46737321     0.66200
H1342       H  0.36794205  0.95188442  0.44479001     0.15100
H1343       H  0.32003647  0.84062507  0.43258069     0.14800
N1344       N  0.28587668  0.88202400  0.40604721     0.73900
O1345       O  0.43012586  0.91277868  0.44855482    -0.39500
O1346       O  0.40807056  0.91965056  0.49551207    -0.39500
O1347       O  0.28887951  0.87187220  0.37745213    -0.40200
O1348       O  0.26242971  0.87099632  0.42250421    -0.40200
C1349       C  0.28584946  0.61113819  0.45721035    -0.12500
C1350       C  0.29894934  0.60225910  0.42724360     0.04500
C1351       C  0.31789018  0.62575356  0.41011902    -0.07800
C1352       C  0.32381576  0.65634726  0.42300449    -0.08500
C1353       C  0.31214605  0.66503488  0.45303902    -0.03100
C1354       C  0.29079443  0.64316362  0.46976229     0.03700
N1355       N  0.27232740  0.65324106  0.49746139     0.66200
H1356       H  0.26953592  0.59403782  0.46926830     0.15100
H1357       H  0.33993908  0.67304599  0.40999776     0.14800
N1358       N  0.33272061  0.61920048  0.37977547     0.73900
O1359       O  0.25300206  0.63332186  0.51118156    -0.39500
O1360       O  0.27267202  0.68261021  0.50658142    -0.39500
O1361       O  0.31853787  0.62870303  0.35472721    -0.40200
O1362       O  0.36337412  0.61787446  0.37929737    -0.40200
C1363       C  0.45527744  0.78531663  0.39345082    -0.12500
C1364       C  0.42417727  0.79532310  0.40269818     0.04500
C1365       C  0.40439447  0.80908318  0.37812737    -0.07800
C1366       C  0.41639024  0.81427966  0.34730027    -0.08500
C1367       C  0.44802552  0.80741949  0.33912180     0.02300
C1368       C  0.46710920  0.79053577  0.36155587     0.03700
N1369       N  0.49762798  0.77755316  0.35203949     0.66200
H1370       H  0.46992351  0.77275086  0.41077741     0.15100
H1371       H  0.40137130  0.82687264  0.33016490     0.14800
N1372       N  0.37237246  0.82035688  0.38361624     0.73900
O1373       O  0.00777025  0.76208567  0.37139932    -0.39500
O1374       O  0.50357131  0.77227241  0.32263860    -0.39500
O1375       O  0.36852256  0.85055092  0.38116037    -0.40200
O1376       O  0.34859096  0.80136335  0.37649358    -0.40200
C1377       C  0.40865836  0.82455652  0.11344491    -0.12500
C1378       C  0.42797382  0.80696374  0.09222311     0.04500
C1379       C  0.45943094  0.79834200  0.10295829    -0.07800
C1380       C  0.46954946  0.80588375  0.13500378    -0.08500
C1381       C  0.44907406  0.82224099  0.15641121    -0.03100
C1382       C  0.41860767  0.83149617  0.14486058     0.03700
N1383       N  0.39747189  0.84921169  0.16479063     0.66200
H1384       H  0.38456500  0.83177621  0.10609810     0.15100
H1385       H  0.49391405  0.80017919  0.14264964     0.14800
N1386       N  0.48191451  0.78320897  0.08186993     0.73900
O1387       O  0.39488423  0.87914246  0.15969093    -0.39500
O1388       O  0.38620531  0.83659195  0.19018722    -0.39500
O1389       O  0.50047909  0.80122366  0.06511412    -0.40200
O1390       O  0.49095374  0.75503070  0.08838862    -0.40200
C1391       C  0.41098567  0.72037178  0.37011337    -0.12500
C1392       C  0.41662299  0.70623628  0.40073860     0.04500
C1393       C  0.43254284  0.67639873  0.40070260    -0.07800
C1394       C  0.44339257  0.66267498  0.37181909    -0.08500
C1395       C  0.44114625  0.67797874  0.34182367    -0.03100
C1396       C  0.42380751  0.70698028  0.34106296     0.03700
N1397       N  0.41835933  0.72235093  0.31095967     0.66200
H1398       H  0.39682970  0.74200077  0.36867277     0.15100
H1399       H  0.45665333  0.64066461  0.37368875     0.14800
N1400       N  0.43711963  0.65848573  0.42955337     0.73900
O1401       O  0.39747460  0.70970544  0.29184745    -0.39500
O1402       O  0.44026218  0.74129178  0.29987680    -0.39500
O1403       O  0.46539778  0.65801180  0.44152406    -0.40200
O1404       O  0.41732045  0.63521152  0.43548342    -0.40200
C1405       C  0.45794983  0.68484192  0.09252111    -0.12500
C1406       C  0.43626352  0.71015722  0.09402398     0.04500
C1407       C  0.42676809  0.72103126  0.12569343    -0.07800
C1408       C  0.44145664  0.70880380  0.15352667    -0.08500
C1409       C  0.46002523  0.68116491  0.15212681    -0.03100
C1410       C  0.46692876  0.66820131  0.12058216     0.03700
N1411       N  0.47698643  0.63550719  0.11576161     0.66200
H1412       H  0.46327669  0.67417909  0.06917922     0.15100
H1413       H  0.43394822  0.71782310  0.17691467     0.14800
N1414       N  0.39846746  0.73979606  0.13120311     0.73900
O1415       O  0.45563866  0.61291754  0.11848844    -0.39500
O1416       O  0.50073322  0.63058936  0.09737238    -0.39500
O1417       O  0.37100839  0.72505114  0.13028169    -0.40200
O1418       O  0.40135734  0.76432569  0.14954334    -0.40200
C1419       C  0.18985363  0.85159179  0.42454705    -0.12500
C1420       C  0.17342725  0.85122075  0.45348313     0.04500
C1421       C  0.16777727  0.88182453  0.46913701    -0.07800
C1422       C  0.18386151  0.91056560  0.45840659    -0.08500
C1423       C  0.19966870  0.91093939  0.42871374    -0.03100
C1424       C  0.19868984  0.88093449  0.41015461     0.03700
N1425       N  0.20310035  0.87934231  0.37588203     0.66200
H1426       H  0.19167179  0.82921231  0.41066087     0.15100
H1427       H  0.18089176  0.93322289  0.47150833     0.14800
N1428       N  0.14245179  0.88540621  0.49238455     0.73900
O1429       O  0.22745089  0.86511637  0.36485648    -0.39500
O1430       O  0.17790399  0.87919655  0.35847191    -0.39500
O1431       O  0.15769533  0.89997152  0.02020158    -0.40200
O1432       O  0.11399124  0.88981642  0.48208167    -0.40200
C1433       C  0.15631327  0.63722054  0.43996375    -0.12500
C1434       C  0.17705142  0.66384118  0.44844244     0.04500
C1435       C  0.20955891  0.66285178  0.43822581    -0.07800
C1436       C  0.22152550  0.63315485  0.42598242    -0.08500
C1437       C  0.20170954  0.60417132  0.42425298    -0.03100
C1438       C  0.16795446  0.60852519  0.42676045     0.03700
N1439       N  0.14493322  0.58752690  0.41029722     0.66200
H1440       H  0.13011240  0.63888068  0.44199447     0.15100
H1441       H  0.24539907  0.63352966  0.41531355     0.14800
N1442       N  0.22803864  0.69262561  0.43417852     0.73900
O1443       O  0.12384812  0.57216801  0.42669164    -0.39500
O1444       O  0.13785934  0.59453096  0.38163665    -0.39500
O1445       O  0.24087145  0.70666514  0.45841079    -0.40200
O1446       O  0.22293486  0.70923373  0.40939684    -0.40200
C1447       C  0.22287487  0.88514612  0.04254779    -0.12500
C1448       C  0.20644729  0.89713032  0.06968382     0.04500
C1449       C  0.18567596  0.87534062  0.08662284    -0.07800
C1450       C  0.18372992  0.84265296  0.07852192    -0.08500
C1451       C  0.19705550  0.83113245  0.05003788    -0.03100
C1452       C  0.21825388  0.85212228  0.03237312     0.03700
N1453       N  0.23632684  0.83991492  0.00554542     0.66200
H1454       H  0.23949891  0.90126609  0.02975674     0.15100
H1455       H  0.16685007  0.82717847  0.09198241     0.14800
N1456       N  0.16372209  0.88624838  0.11064058     0.73900
O1457       O  0.24931621  0.85940105  0.98576055    -0.39500
O1458       O  0.24404246  0.81044733  0.00465902    -0.39500
O1459       O  0.13551597  0.89370923  0.10182243    -0.40200
O1460       O  0.16707464  0.87544248  0.13857569    -0.40200
C1461       C  0.19393794  0.64610823  0.05896303    -0.12500
C1462       C  0.16577970  0.64339202  0.04026400     0.04500
C1463       C  0.15090697  0.61113214  0.03661521    -0.07800
C1464       C  0.16759921  0.58379814  0.04869710    -0.08500
C1465       C  0.19561012  0.58727243  0.06812832    -0.03100
C1466       C  0.20733192  0.61963861  0.07440047     0.03700
N1467       N  0.23218989  0.62757087  0.09735699     0.66200
H1468       H  0.20471467  0.67002571  0.06418506     0.15100
H1469       H  0.15675695  0.55957132  0.04569633     0.14800
N1470       N  0.11878039  0.60474614  0.02286196     0.73900
O1471       O  0.25547556  0.64542135  0.08756543    -0.39500
O1472       O  0.22373792  0.63116085  0.12629442    -0.39500
O1473       O  0.14316664  0.58209986  0.48581623    -0.40200
O1474       O  0.09604488  0.62419052  0.02705979    -0.40200
C1475       C  0.03685402  0.81765155  0.41333019    -0.12500
C1476       C  0.06385869  0.79785128  0.41318567     0.04500
C1477       C  0.07974674  0.79333797  0.38245022    -0.07800
C1478       C  0.06461484  0.80178760  0.35363179    -0.08500
C1479       C  0.03882987  0.82256995  0.35372774    -0.03100
C1480       C  0.02627067  0.83246702  0.38463405     0.03700
N1481       N  0.00531165  0.85941078  0.38821686     0.66200
H1482       H  0.02606937  0.82443082  0.43614311     0.15100
H1483       H  0.07682732  0.79706039  0.33098236     0.14800
N1484       N  0.11407347  0.78873191  0.37975987     0.73900
O1485       O  0.97589912  0.85387782  0.39556203    -0.39500
O1486       O  0.01814087  0.88651323  0.39653135    -0.39500
O1487       O  0.12408514  0.76929314  0.35855462    -0.40200
O1488       O  0.13295261  0.81210878  0.38825726    -0.40200
C1489       C  0.07600689  0.80018270  0.16275243    -0.12500
C1490       C  0.04952022  0.82050291  0.15980520     0.04500
C1491       C  0.04172020  0.83119036  0.12798663    -0.07800
C1492       C  0.05696707  0.81791066  0.10088958    -0.08500
C1493       C  0.08278105  0.79687936  0.10376608    -0.03100
C1494       C  0.09301959  0.78885892  0.13552601     0.03700
N1495       N  0.12103078  0.76996258  0.14111231     0.66200
H1496       H  0.08486117  0.79443638  0.18657558     0.15100
H1497       H  0.05003089  0.82621755  0.07721473     0.14800
N1498       N  0.02175785  0.85853234  0.12238971     0.73900
O1499       O  0.14752832  0.78477787  0.14822982    -0.39500
O1500       O  0.11688561  0.74087047  0.14996479    -0.39500
O1501       O  0.03544583  0.88645266  0.12281394    -0.40200
O1502       O  0.50511804  0.86643971  0.11561986    -0.40200
C1503       C  0.06819589  0.70562343  0.38877567    -0.12500
C1504       C  0.10194570  0.70687737  0.38516822     0.04500
C1505       C  0.11498882  0.69915694  0.35450744    -0.07800
C1506       C  0.09355771  0.69180035  0.32842534    -0.08500
C1507       C  0.05963102  0.69003516  0.33296993    -0.03100
C1508       C  0.04791657  0.69574685  0.36389897     0.03700
N1509       N  0.01547861  0.68767816  0.37150206     0.66200
H1510       H  0.05692230  0.71115734  0.41171481     0.15100
H1511       H  0.10343208  0.68520956  0.30523816     0.14800
N1512       N  0.14916648  0.69627204  0.34970484     0.73900
O1513       O  0.50825501  0.66841587  0.38046287    -0.39500
O1514       O  0.49781658  0.70983794  0.35006698    -0.39500
O1515       O  0.16110027  0.66850540  0.35225459    -0.40200
O1516       O  0.16399248  0.71728498  0.33280486    -0.40200
C1517       C  0.06982183  0.66019630  0.13752410    -0.12500
C1518       C  0.05099472  0.67976937  0.15675173     0.04500
C1519       C  0.04402991  0.71104451  0.14628189    -0.07800
C1520       C  0.05307613  0.72022743  0.11452166    -0.08500
C1521       C  0.07085663  0.69923023  0.09432764    -0.03100
C1522       C  0.08063174  0.66962212  0.10767676     0.03700
N1523       N  0.10435444  0.64962835  0.09339122     0.66200
H1524       H  0.07641155  0.63640493  0.14567165     0.15100
H1525       H  0.04872251  0.74440726  0.10662148     0.14800
N1526       N  0.03177908  0.73415982  0.16882904     0.73900
O1527       O  0.13374182  0.65739404  0.09931212    -0.39500
O1528       O  0.09686596  0.61977424  0.08977025    -0.39500
O1529       O  0.55807500  0.73840069  0.19257626    -0.40200
O1530       O  0.50717626  0.73464206  0.17818108    -0.40200
O1531       O  0.07187227  0.71980884  0.53528655    -0.80400
O1532       O  0.07180510  0.78631015  0.97331485    -0.80400
O1533       O  0.12534856  0.77960654  0.57407763    -0.80400
O1534       O  0.14834199  0.73294860  0.91557718    -0.80400
O1535       O  0.08011865  0.78595621  0.54619913    -0.80500
O1536       O  0.10806065  0.70716202  0.94368120    -0.80400
O1537       O  0.11011509  0.77274942  0.93978614    -0.80400
O1538       O  0.11489414  0.71550955  0.56674774    -0.80400
C1539       C  0.08446843  0.71276949  0.56230317     1.09300
C1540       C  0.08247660  0.78381250  0.94416172     1.09200
C1541       C  0.09566193  0.78727007  0.57316987     1.09300
C1542       C  0.12272000  0.71405078  0.91582259     1.09200
O1543       O  0.13179970  0.68726613  0.96777822    -0.80400
O1544       O  0.14181820  0.81678726  0.53174982    -0.80500
O1545       O  0.16931081  0.70649640  0.53020223    -0.80400
O1546       O  0.17339726  0.78835190  0.95965280    -0.80400
O1547       O  0.13170496  0.81873615  0.97147627    -0.80400
O1548       O  0.12360755  0.67908109  0.51583255    -0.80400
O1549       O  0.17772993  0.71661214  0.97156236    -0.80300
O1550       O  0.18062382  0.77964190  0.53288585    -0.80400
Co1551     Co  0.09656727  0.71359853  0.49385193     1.51500
Co1552     Co  0.10810419  0.79672790  0.00629844     1.51700
Co1553     Co  0.14741081  0.74600063  0.54703696     1.51600
Co1554     Co  0.14409026  0.74715042  0.95985921     1.51500
O1555       O  0.12477638  0.75411587  0.50336456    -1.42300
C1556       C  0.16336224  0.68925255  0.96554248     1.09200
C1557       C  0.17165101  0.80919233  0.53507568     1.09300
C1558       C  0.15265344  0.67942283  0.52755922     1.09300
C1559       C  0.16084354  0.81655702  0.96312162     1.09200
O1560       O  0.38501199  0.72647842  0.56848142    -0.80400
O1561       O  0.37297875  0.78505291  0.93885596    -0.80400
O1562       O  0.41592968  0.71930831  0.95886602    -0.80400
O1563       O  0.42171478  0.79757014  0.53614596    -0.80400
O1564       O  0.36956637  0.73078500  0.93283857    -0.80500
O1565       O  0.37787435  0.78911377  0.56624001    -0.80400
O1566       O  0.42046390  0.78141084  0.96238757    -0.80400
O1567       O  0.42751889  0.72036919  0.53579567    -0.80400
C1568       C  0.41470551  0.72072766  0.56460186     1.09300
C1569       C  0.40429495  0.78655669  0.93649810     1.09200
C1570       C  0.39858710  0.71935302  0.93273706     1.09300
C1571       C  0.40823553  0.79623243  0.56413312     1.09200
O1572       O  0.31799659  0.78054763  0.53022685    -0.80400
O1573       O  0.31773141  0.71591616  0.97728238    -0.80500
O1574       O  0.37295235  0.68114089  0.53181355    -0.80400
O1575       O  0.39575704  0.83731280  0.98612332    -0.80400
O1576       O  0.35436482  0.80845125  0.96202918    -0.80400
O1577       O  0.32816849  0.70915104  0.53550204    -0.80400
O1578       O  0.35694187  0.81738014  0.52195353    -0.80300
O1579       O  0.35977935  0.68402166  0.97122589    -0.80400
Co1580     Co  0.35247642  0.75126583  0.54654141     1.51500
Co1581     Co  0.34321337  0.75628448  0.96668903     1.51700
Co1582     Co  0.39623590  0.70648912  0.49892297     1.51600
Co1583     Co  0.38944380  0.79279623  0.99821993     1.51500
O1584       O  0.37529428  0.75133551  0.50309211    -1.42300
C1585       C  0.32744564  0.81035382  0.52841088     1.09200
C1586       C  0.32924431  0.68858396  0.97013339     1.09300
C1587       C  0.34285912  0.68189446  0.53643075     1.09300
C1588       C  0.37010604  0.83677659  0.96850943     1.09200
O1589       O  0.20749859  0.53231164  0.67426584    -0.80400
O1590       O  0.28483776  0.96629267  0.67603137    -0.80400
O1591       O  0.18005035  0.96396261  0.62989702    -0.80400
O1592       O  0.31483666  0.53522002  0.62723937    -0.80400
O1593       O  0.21210949  0.96354236  0.67289887    -0.80500
O1594       O  0.28480221  0.53784528  0.67128075    -0.80400
O1595       O  0.31839772  0.96970946  0.63461360    -0.80400
O1596       O  0.17651478  0.52391208  0.63104263    -0.80400
C1597       C  0.17907601  0.53196513  0.66038536     1.09300
C1598       C  0.31359861  0.96405878  0.66454950     1.09200
C1599       C  0.18379356  0.95968811  0.66001415     1.09300
C1600       C  0.31247106  0.54171032  0.65667385     1.09200
O1601       O  0.27277665  0.56873201  0.61221487    -0.80400
O1602       O  0.21989701  0.92842394  0.61371655    -0.80500
O1603       O  0.21011753  0.53536735  0.57334258    -0.80400
O1604       O  0.28396989  0.96002937  0.57314152    -0.80400
O1605       O  0.28172939  0.92923709  0.61611905    -0.80400
O1606       O  0.21208313  0.56695820  0.61667559    -0.80400
O1607       O  0.27927513  0.53450947  0.57097045    -0.80300
O1608       O  0.21725016  0.96022166  0.57098839    -0.80400
Co1609     Co  0.24479454  0.54606743  0.64404688     1.51500
Co1610     Co  0.24955349  0.95185031  0.64458796     1.51700
Co1611     Co  0.20089090  0.49587767  0.60163447     1.51600
Co1612     Co  0.29378260  0.50014857  0.60226542     1.51500
O1613       O  0.24714574  0.49923393  0.62341398    -1.42300
C1614       C  0.27928491  0.56384681  0.58276684     1.09200
C1615       C  0.21435134  0.93204798  0.58387728     1.09300
C1616       C  0.20523205  0.56317857  0.58721724     1.09300
C1617       C  0.28564189  0.93168844  0.58586976     1.09200
O1618       O  0.18132882  0.53349205  0.86953866    -0.80400
O1619       O  0.31456001  0.97802645  0.85656959    -0.80400
O1620       O  0.28801033  0.53633360  0.82527299    -0.80400
O1621       O  0.21234093  0.96349529  0.82525487    -0.80400
O1622       O  0.31889938  0.53495587  0.86864362    -0.80500
O1623       O  0.18075723  0.97071517  0.86784064    -0.80400
O1624       O  0.28153817  0.96575010  0.81823037    -0.80400
O1625       O  0.21267251  0.53559447  0.82625570    -0.80400
C1626       C  0.18441520  0.53760057  0.83954917     1.09300
C1627       C  0.31027695  0.96718827  0.82852250     1.09200
C1628       C  0.31648064  0.53861654  0.83854603     1.09300
C1629       C  0.18441210  0.96174902  0.83884449     1.09200
O1630       O  0.21529475  0.96824846  0.92605643    -0.80400
O1631       O  0.28366978  0.53979631  0.92739891    -0.80500
O1632       O  0.22074793  0.57287530  0.88462068    -0.80400
O1633       O  0.28595971  0.94121171  0.88864900    -0.80400
O1634       O  0.31841237  0.97646894  0.91747687    -0.80400
O1635       O  0.21720410  0.54111921  0.92747782    -0.80400
O1636       O  0.22242975  0.93529346  0.88485982    -0.80300
O1637       O  0.28134711  0.57190874  0.88494450    -0.80400
Co1638     Co  0.20357486  0.50329256  0.89851366     1.51500
Co1639     Co  0.29615933  0.50367832  0.89707357     1.51700
Co1640     Co  0.25059123  0.54916012  0.85492061     1.51600
Co1641     Co  0.25060034  0.95680495  0.85430733     1.51500
O1642       O  0.24959980  0.50317051  0.87627911    -1.42300
C1643       C  0.21383605  0.93935145  0.91336757     1.09200
C1644       C  0.28640060  0.56813643  0.91481537     1.09300
C1645       C  0.21533418  0.56941524  0.91456980     1.09300
C1646       C  0.30890540  0.94714673  0.91030485     1.09200
O1647       O  0.03752134  0.67340827  0.70829727    -0.80400
O1648       O  0.46125032  0.68076302  0.78792265    -0.80400
O1649       O  0.46904146  0.63994861  0.68114510    -0.80400
O1650       O  0.03342856  0.64257192  0.81475717    -0.80400
O1651       O  0.46397358  0.68247760  0.71393881    -0.80500
O1652       O  0.04067499  0.68105974  0.77816798    -0.80400
O1653       O  0.46749238  0.63801522  0.81829140    -0.80400
O1654       O  0.03349351  0.62830995  0.67994909    -0.80400
C1655       C  0.04001232  0.65855789  0.68150337     1.09300
C1656       C  0.45645330  0.66626529  0.81465944     1.09200
C1657       C  0.46420751  0.66986767  0.68508758     1.09300
C1658       C  0.04393704  0.67093643  0.80696312     1.09200
O1659       O  0.07314100  0.62247879  0.77869718    -0.80400
O1660       O  0.42960678  0.62434886  0.71829390    -0.80500
O1661       O  0.03052685  0.57097993  0.71820824    -0.80400
O1662       O  0.46795961  0.57828783  0.78322285    -0.80400
O1663       O  0.43072679  0.61618020  0.77895724    -0.80400
O1664       O  0.06880473  0.61052029  0.71883387    -0.80400
O1665       O  0.04020413  0.57992905  0.78387150    -0.80300
O1666       O  0.45957530  0.58106038  0.71538056    -0.80400
Co1667     Co  0.04990317  0.64685770  0.74571389     1.51500
Co1668     Co  0.45179487  0.65126256  0.75023174     1.51700
Co1669     Co  0.99872915  0.60362917  0.70346089     1.51600
Co1670     Co  0.50170930  0.61238888  0.79597405     1.51500
O1671       O  0.49925178  0.63272935  0.74995941    -1.42300
C1672       C  0.06897765  0.59297014  0.78509968     1.09200
C1673       C  0.43178355  0.59460778  0.71297448     1.09300
C1674       C  0.06035063  0.58052918  0.71475335     1.09300
C1675       C  0.43827454  0.58682850  0.78509504     1.09200
O1676       O  0.02636490  0.86704583  0.68723414    -0.80400
O1677       O  0.46179555  0.85928139  0.82107684    -0.80400
O1678       O  0.03113965  0.82450658  0.79505253    -0.80400
O1679       O  0.46513407  0.82013968  0.71582200    -0.80400
O1680       O  0.02658560  0.86788832  0.82629970    -0.80500
O1681       O  0.46891483  0.86326204  0.68499613    -0.80400
O1682       O  0.46182472  0.81789721  0.78640322    -0.80400
O1683       O  0.03201609  0.82382675  0.71835054    -0.80400
C1684       C  0.03384491  0.83755250  0.69034708     1.09300
C1685       C  0.45786095  0.82879898  0.81500057     1.09200
C1686       C  0.03190167  0.83811605  0.82351494     1.09300
C1687       C  0.46412610  0.83288384  0.68796352     1.09200
O1688       O  0.46112100  0.92292549  0.72069351    -0.80400
O1689       O  0.03049904  0.92591061  0.79133640    -0.80500
O1690       O  0.06552950  0.88357455  0.72597269    -0.80400
O1691       O  0.42493755  0.87636417  0.78224368    -0.80400
O1692       O  0.45725942  0.92006889  0.78557387    -0.80400
O1693       O  0.03443197  0.92633903  0.72238477    -0.80400
O1694       O  0.42796775  0.87944510  0.72051976    -0.80300
O1695       O  0.06443074  0.88506984  0.78706183    -0.80400
Co1696     Co  0.99622482  0.89615184  0.71036864     1.51500
Co1697     Co  0.99468853  0.89278342  0.80236619     1.51700
Co1698     Co  0.04310838  0.85367446  0.75657927     1.51600
Co1699     Co  0.44966081  0.84873050  0.75163470     1.51500
O1700       O  0.99647312  0.87289762  0.75555523    -1.42300
C1701       C  0.43277906  0.90982552  0.71552576     1.09200
C1702       C  0.05946777  0.91476457  0.79309463     1.09300
C1703       C  0.06240170  0.91333750  0.71924231     1.09300
C1704       C  0.42868479  0.90682601  0.78638760     1.09200
C1705       C  0.36854350  0.91299106  0.78184541    -0.12500
C1706       C  0.39897353  0.92537072  0.79296614     0.04500
C1707       C  0.39985180  0.95334821  0.81234292    -0.07800
C1708       C  0.37061828  0.96678664  0.82236110    -0.08500
C1709       C  0.33976049  0.95486286  0.81143749    -0.03100
C1710       C  0.33921623  0.92764600  0.79024829     0.03700
N1711       N  0.30947635  0.91218831  0.77947593     0.66200
H1712       H  0.36738723  0.89130995  0.76673623     0.15100
H1713       H  0.37211210  0.98510369  0.84081578     0.14800
N1714       N  0.43024167  0.96705522  0.82365167     0.73900
O1715       O  0.29821333  0.88835043  0.79529039    -0.39500
O1716       O  0.30226628  0.91386236  0.74998129    -0.39500
O1717       O  0.44666902  0.98527612  0.80507657    -0.40200
O1718       O  0.44827284  0.45908091  0.84556751    -0.40200
C1719       C  0.11088266  0.94836227  0.78462021    -0.12500
C1720       C  0.08878221  0.93266322  0.80594408     0.04500
C1721       C  0.10119675  0.92295272  0.83601823    -0.07800
C1722       C  0.13319505  0.93067750  0.84473047    -0.08500
C1723       C  0.15465838  0.94717937  0.82402406    -0.03100
C1724       C  0.14401167  0.95491870  0.79321207     0.03700
N1725       N  0.16717721  0.96792435  0.77065487     0.66200
H1726       H  0.10242961  0.95493084  0.76122811     0.15100
H1727       H  0.14085368  0.92490070  0.86897769     0.14800
N1728       N  0.08151172  0.90647763  0.85925704     0.73900
O1729       O  0.18811198  0.94904141  0.75970384    -0.39500
O1730       O  0.17490665  0.99779814  0.77215338    -0.39500
O1731       O  0.08806867  0.87744762  0.86546137    -0.40200
O1732       O  0.06925068  0.92354123  0.88126695    -0.40200
C1733       C  0.37533487  0.55479729  0.84283755    -0.12500
C1734       C  0.34856534  0.54664190  0.82236984     0.04500
C1735       C  0.35551088  0.54275739  0.78942383    -0.07800
C1736       C  0.38672582  0.55213310  0.77762928    -0.08500
C1737       C  0.41172798  0.56474886  0.79792766    -0.03100
C1738       C  0.40634759  0.56303161  0.83119588     0.03700
N1739       N  0.43224254  0.56798238  0.85388371     0.66200
H1740       H  0.37285189  0.55373426  0.86873764     0.15100
H1741       H  0.39125704  0.54961070  0.75237648     0.14800
N1742       N  0.33259047  0.52688301  0.76820550     0.73900
O1743       O  0.43153689  0.59244461  0.87229521    -0.39500
O1744       O  0.44673539  0.54331819  0.86359303    -0.39500
O1745       O  0.31194112  0.54338359  0.75365539    -0.40200
O1746       O  0.33789266  0.49839681  0.75845235    -0.40200
C1747       C  0.15754790  0.56895873  0.79668812    -0.12500
C1748       C  0.15443713  0.54761796  0.82244457     0.04500
C1749       C  0.12243092  0.54062395  0.83476542    -0.07800
C1750       C  0.09504500  0.55363318  0.82031186    -0.08500
C1751       C  0.09831716  0.57589293  0.79556135    -0.03100
C1752       C  0.13031962  0.58437555  0.78427090     0.03700
N1753       N  0.13631595  0.61014175  0.76199893     0.66200
H1754       H  0.18159432  0.57592429  0.78788063     0.15100
H1755       H  0.07111737  0.54812934  0.83029212     0.14800
N1756       N  0.11679427  0.52330935  0.86391844     0.73900
O1757       O  0.14421814  0.60303131  0.73350552    -0.39500
O1758       O  0.14523882  0.63767847  0.77318871    -0.39500
O1759       O  0.11536085  0.53980396  0.88960493    -0.40200
O1760       O  0.10040903  0.49691977  0.86238498    -0.40200
C1761       C  0.38897583  0.95226455  0.71940956    -0.12500
C1762       C  0.40456059  0.92771786  0.70185038     0.04500
C1763       C  0.38869969  0.91533392  0.67389634    -0.07800
C1764       C  0.35796057  0.92587315  0.66504766    -0.08500
C1765       C  0.34172623  0.94983507  0.68243281    -0.03100
C1766       C  0.35737112  0.96291538  0.71073407     0.03700
N1767       N  0.34199559  0.98640908  0.73101533     0.66200
H1768       H  0.40091133  0.96234043  0.74071997     0.15100
H1769       H  0.34730660  0.91617160  0.64283236     0.14800
N1770       N  0.40454675  0.89385935  0.65223552     0.73900
O1771       O  0.31180785  0.98378451  0.73645470    -0.39500
O1772       O  0.35922961  0.00586790  0.74817026    -0.39500
O1773       O  0.39172329  0.86598902  0.64727939    -0.40200
O1774       O  0.42245219  0.90619213  0.63060725    -0.40200
C1775       C  0.12416788  0.96316330  0.66883102    -0.12500
C1776       C  0.15390376  0.94974956  0.67831203     0.04500
C1777       C  0.15286657  0.92441968  0.70104257    -0.07800
C1778       C  0.12287368  0.91592240  0.71552066    -0.08500
C1779       C  0.09296492  0.92954386  0.70630142    -0.03100
C1780       C  0.09399949  0.95314647  0.68198260     0.03700
N1781       N  0.06497797  0.96453320  0.66750391     0.66200
H1782       H  0.12407859  0.98071350  0.64961188     0.15100
H1783       H  0.12265060  0.89680778  0.73329221     0.14800
N1784       N  0.18061141  0.90467609  0.70734105     0.73900
O1785       O  0.05613716  0.99284076  0.67439950    -0.39500
O1786       O  0.05569674  0.95188777  0.64106743    -0.39500
O1787       O  0.18211334  0.88884218  0.73318436    -0.40200
O1788       O  0.20016500  0.89795539  0.68502035    -0.40200
C1789       C  0.40284538  0.55945670  0.67354198    -0.12500
C1790       C  0.40127012  0.57932391  0.70057384     0.04500
C1791       C  0.36999882  0.59028919  0.71065498    -0.07800
C1792       C  0.34154750  0.57660623  0.69706751    -0.08500
C1793       C  0.34308929  0.55509678  0.67124025    -0.03100
C1794       C  0.37446646  0.54900979  0.65749404     0.03700
N1795       N  0.37853257  0.53182239  0.62768725     0.66200
H1796       H  0.42635199  0.55391826  0.66333796     0.15100
H1797       H  0.31806549  0.58447219  0.70549808     0.14800
N1798       N  0.36629644  0.61665417  0.73308785     0.73900
O1799       O  0.38050076  0.02066224  0.61922794    -0.39500
O1800       O  0.39872167  0.98695447  0.65382361    -0.39500
O1801       O  0.36409835  0.64495199  0.72197661    -0.40200
O1802       O  0.35363127  0.61079792  0.76014491    -0.40200
C1803       C  0.13835542  0.53455530  0.70640127    -0.12500
C1804       C  0.14731546  0.54249706  0.67481555     0.04500
C1805       C  0.12224955  0.55518861  0.65467368    -0.07800
C1806       C  0.09361108  0.56644477  0.66824660    -0.08500
C1807       C  0.08546398  0.55988702  0.69996879    -0.03100
C1808       C  0.10641823  0.54047180  0.71785670     0.03700
N1809       N  0.09403299  0.52314029  0.74495980     0.66200
H1810       H  0.15486404  0.52068648  0.72058733     0.15100
H1811       H  0.07648616  0.57887763  0.65322742     0.14800
N1812       N  0.12270076  0.55265444  0.62019993     0.73900
O1813       O  0.11334986  0.51459390  0.76650981    -0.39500
O1814       O  0.06572529  0.51022173  0.74388316    -0.39500
O1815       O  0.11241391  0.52626630  0.60743079    -0.40200
O1816       O  0.12106728  0.57812113  0.60380785    -0.40200
C1817       C  0.28575334  0.87000574  0.58370449    -0.12500
C1818       C  0.29166092  0.90011633  0.56769109     0.04500
C1819       C  0.30362482  0.89829237  0.53587200    -0.07800
C1820       C  0.31156888  0.86802595  0.52231670    -0.08500
C1821       C  0.30766267  0.83857910  0.53893834    -0.03100
C1822       C  0.29332228  0.83970541  0.56953929     0.03700
N1823       N  0.28869703  0.81041873  0.58738206     0.66200
H1824       H  0.27572154  0.86985946  0.60780735     0.15100
H1825       H  0.32237412  0.86775503  0.49882546     0.14800
N1826       N  0.30897214  0.92667585  0.51696293     0.73900
O1827       O  0.31227381  0.79989361  0.60334386    -0.39500
O1828       O  0.26536865  0.79106207  0.57977955    -0.39500
O1829       O  0.33748295  0.93895225  0.51537910    -0.40200
O1830       O  0.28913894  0.93204795  0.49450812    -0.40200
C1831       C  0.30170903  0.65295333  0.56693317    -0.12500
C1832       C  0.32595346  0.65082035  0.54452490     0.04500
C1833       C  0.33414489  0.61942446  0.53260526    -0.07800
C1834       C  0.31624389  0.59144237  0.54265919    -0.08500
C1835       C  0.29172706  0.59372083  0.56591855    -0.03100
C1836       C  0.28497336  0.62560352  0.57806823     0.03700
N1837       N  0.26176344  0.63222733  0.60242667     0.66200
H1838       H  0.29624708  0.67659147  0.57716043     0.15100
H1839       H  0.32329734  0.56770562  0.53404596     0.14800
N1840       N  0.36145582  0.61490826  0.51195769     0.73900
O1841       O  0.27070834  0.62953892  0.63136901    -0.39500
O1842       O  0.24234619  0.65447098  0.59611036    -0.39500
O1843       O  0.38769427  0.60593158  0.52445657    -0.40200
O1844       O  0.35633616  0.60856083  0.48254802    -0.40200
C1845       C  0.35571903  0.92424644  0.94072099    -0.12500
C1846       C  0.32535284  0.91940377  0.92531725     0.04500
C1847       C  0.31161418  0.88762320  0.92426263    -0.07800
C1848       C  0.32612757  0.86265156  0.94026095    -0.08500
C1849       C  0.35685220  0.86662440  0.95438391    -0.03100
C1850       C  0.37206216  0.89805860  0.95434113     0.03700
N1851       N  0.40438839  0.90389121  0.96615069     0.66200
H1852       H  0.36752099  0.94821361  0.94115397     0.15100
H1853       H  0.31342399  0.83910838  0.93973020     0.14800
N1854       N  0.28333750  0.87895277  0.90622774     0.73900
O1855       O  0.42747253  0.90408521  0.94612683    -0.39500
O1856       O  0.40827439  0.91940628  0.99234661    -0.39500
O1857       O  0.28743068  0.86752061  0.87824670    -0.40200
O1858       O  0.25924675  0.86861905  0.92211580    -0.40200
C1859       C  0.28119674  0.60924679  0.96013927    -0.12500
C1860       C  0.29679070  0.59840488  0.93198577     0.04500
C1861       C  0.31744031  0.62064411  0.91528296    -0.07800
C1862       C  0.32208509  0.65211859  0.92621530    -0.08500
C1863       C  0.30925458  0.66230408  0.95529680    -0.03100
C1864       C  0.28687847  0.64154330  0.97196913     0.03700
N1865       N  0.27000137  0.65244833  0.00029572     0.66200
H1866       H  0.26389136  0.59305387  0.97207779     0.15100
H1867       H  0.33917944  0.66790167  0.91329616     0.14800
N1868       N  0.33616020  0.61138402  0.88799081     0.73900
O1869       O  0.25612464  0.63205104  0.01860123    -0.39500
O1870       O  0.26668145  0.68237175  0.00596712    -0.39500
O1871       O  0.32650342  0.61964345  0.86046644    -0.40200
O1872       O  0.36628901  0.60808031  0.89231074    -0.40200
C1873       C  0.44754335  0.78215865  0.89337668    -0.12500
C1874       C  0.41811937  0.79496786  0.90398658     0.04500
C1875       C  0.39988074  0.81276196  0.88113408    -0.07800
C1876       C  0.41238986  0.81952130  0.85072784    -0.08500
C1877       C  0.44250684  0.80894997  0.84098099     0.02300
C1878       C  0.45931158  0.78800211  0.86169078     0.03700
N1879       N  0.48761294  0.77184376  0.85095491     0.66200
H1880       H  0.46076002  0.76661778  0.90936566     0.15100
H1881       H  0.39893257  0.83523710  0.83499349     0.14800
N1882       N  0.36932057  0.82661152  0.88817940     0.73900
O1883       O  0.01161326  0.76014747  0.87367728    -0.39500
O1884       O  0.48988207  0.76256163  0.82198022    -0.39500
O1885       O  0.36809050  0.85718428  0.88657683    -0.40200
O1886       O  0.34380554  0.80989207  0.88150052    -0.40200
C1887       C  0.40807835  0.79699793  0.62477905    -0.12500
C1888       C  0.42575164  0.80265729  0.59583594     0.04500
C1889       C  0.45854191  0.81372292  0.59910534    -0.07800
C1890       C  0.47143644  0.82067791  0.62991122    -0.08500
C1891       C  0.45381813  0.81496856  0.65824803    -0.03100
C1892       C  0.42229829  0.80144496  0.65553140     0.03700
N1893       N  0.40370413  0.79488433  0.68395797     0.66200
H1894       H  0.38255928  0.78995024  0.62365218     0.15100
H1895       H  0.49530105  0.83177875  0.63177065     0.14800
N1896       N  0.47889934  0.81986245  0.57192106     0.73900
O1897       O  0.38842310  0.81759861  0.69710423    -0.39500
O1898       O  0.41054784  0.77050267  0.70056412    -0.39500
O1899       O  0.48294888  0.84886609  0.56275625    -0.40200
O1900       O  0.50064655  0.79980972  0.56546837    -0.40200
C1901       C  0.40361716  0.71891247  0.87105756    -0.12500
C1902       C  0.41167447  0.70581692  0.90157445     0.04500
C1903       C  0.43045467  0.67778297  0.90158664    -0.07800
C1904       C  0.44169810  0.66477560  0.87272130    -0.08500
C1905       C  0.43735005  0.67960013  0.84277194    -0.03100
C1906       C  0.41680137  0.70633728  0.84187436     0.03700
N1907       N  0.40726790  0.71902828  0.81152066     0.66200
H1908       H  0.38748881  0.73918104  0.86987411     0.15100
H1909       H  0.45661116  0.64387534  0.87440944     0.14800
N1910       N  0.43798760  0.66116558  0.93057072     0.73900
O1911       O  0.38743776  0.70243978  0.79421255    -0.39500
O1912       O  0.42496174  0.74079959  0.79852078    -0.39500
O1913       O  0.46646745  0.66452262  0.94193382    -0.40200
O1914       O  0.42134579  0.63583695  0.93736096    -0.40200
C1915       C  0.45943204  0.69449758  0.59560965    -0.12500
C1916       C  0.43079581  0.71167108  0.59581142     0.04500
C1917       C  0.41423793  0.71482295  0.62637545    -0.07800
C1918       C  0.42984544  0.70702001  0.65512096    -0.08500
C1919       C  0.45659353  0.68737047  0.65468241    -0.03100
C1920       C  0.46984507  0.67881108  0.62368560     0.03700
N1921       N  0.48979516  0.65115544  0.61896837     0.66200
H1922       H  0.47062543  0.68878662  0.57269495     0.15100
H1923       H  0.41697343  0.71021424  0.67766044     0.14800
N1924       N  0.37946031  0.71698930  0.62874644     0.73900
O1925       O  0.47630901  0.62321903  0.62077095    -0.39500
O1926       O  0.51479181  0.65415724  0.60152749    -0.39500
O1927       O  0.36237764  0.69132444  0.62369183    -0.40200
O1928       O  0.36774395  0.73860934  0.64666907    -0.40200
C1929       C  0.18998348  0.84913734  0.92325408    -0.12500
C1930       C  0.17711983  0.84794138  0.95390924     0.04500
C1931       C  0.17283915  0.87832173  0.97074766    -0.07800
C1932       C  0.18769128  0.90733289  0.95896952    -0.08500
C1933       C  0.19980978  0.90845914  0.92766420    -0.03100
C1934       C  0.19690932  0.87884302  0.90862396     0.03700
N1935       N  0.19970417  0.87771701  0.87418258     0.66200
H1936       H  0.19099327  0.82702650  0.90886375     0.15100
H1937       H  0.18644381  0.92975121  0.97283197     0.14800
N1938       N  0.15009641  0.88152019  0.99672283     0.73900
O1939       O  0.22523812  0.86684820  0.86187818    -0.39500
O1940       O  0.17377165  0.87494907  0.85789459    -0.39500
O1941       O  0.14980911  0.89622544  0.52004693    -0.40200
O1942       O  0.12015211  0.87704946  0.99060404    -0.40200
C1943       C  0.16386278  0.62921734  0.96051580    -0.12500
C1944       C  0.18009542  0.65925233  0.95525396     0.04500
C1945       C  0.20868070  0.65959189  0.93681221    -0.07800
C1946       C  0.22025538  0.62999700  0.92438686    -0.08500
C1947       C  0.20522247  0.59944305  0.93212559    -0.03100
C1948       C  0.17645901  0.59963753  0.95033715     0.03700
N1949       N  0.15780388  0.57040568  0.95605615     0.66200
H1950       H  0.14032486  0.62867486  0.97200671     0.15100
H1951       H  0.24091925  0.63093130  0.90821359     0.14800
N1952       N  0.22393596  0.68986498  0.92771668     0.73900
O1953       O  0.16687857  0.55168789  0.97795457    -0.39500
O1954       O  0.12861316  0.56833267  0.94644848    -0.39500
O1955       O  0.24230638  0.70498189  0.94760128    -0.40200
O1956       O  0.21236403  0.70517554  0.90437389    -0.40200
C1957       C  0.21918272  0.88873100  0.54073672    -0.12500
C1958       C  0.20268485  0.90183917  0.56726174     0.04500
C1959       C  0.18080324  0.88129001  0.58441975    -0.07800
C1960       C  0.17801900  0.84844284  0.57710023    -0.08500
C1961       C  0.19221866  0.83555622  0.54950613    -0.03100
C1962       C  0.21408639  0.85554903  0.53152826     0.03700
N1963       N  0.23214994  0.84228656  0.50519907     0.66200
H1964       H  0.23652989  0.90402700  0.52788281     0.15100
H1965       H  0.16023702  0.83386428  0.59041819     0.14800
N1966       N  0.15835947  0.89393143  0.60727595     0.73900
O1967       O  0.24489013  0.86093798  0.48451271    -0.39500
O1968       O  0.23994237  0.81284572  0.50547598    -0.39500
O1969       O  0.13246003  0.90571905  0.59670312    -0.40200
O1970       O  0.15832074  0.88277240  0.63543541    -0.40200
C1971       C  0.17603703  0.64971977  0.57277338    -0.12500
C1972       C  0.16612087  0.64849393  0.54054113     0.04500
C1973       C  0.16386664  0.61688053  0.52565368    -0.07800
C1974       C  0.18087343  0.59095880  0.53941150    -0.08500
C1975       C  0.19061020  0.59225217  0.57159805    -0.03100
C1976       C  0.18375551  0.62141018  0.58937493     0.03700
N1977       N  0.18077103  0.62250808  0.62397120     0.66200
H1978       H  0.17356089  0.67213826  0.58647456     0.15100
H1979       H  0.18230245  0.56793262  0.52662493     0.14800
N1980       N  0.13995570  0.60822872  0.50151262     0.73900
O1981       O  0.20422402  0.63354418  0.64089181    -0.39500
O1982       O  0.15260497  0.62415100  0.63583222    -0.39500
O1983       O  0.11107196  0.57653807  0.01253254    -0.40200
O1984       O  0.11163658  0.61900111  0.50384754    -0.40200
C1985       C  0.04057202  0.81663114  0.91412405    -0.12500
C1986       C  0.06717160  0.79627727  0.91331261     0.04500
C1987       C  0.08208981  0.79137920  0.88209355    -0.07800
C1988       C  0.06686606  0.80122215  0.85366261    -0.08500
C1989       C  0.04104919  0.82197485  0.85447660    -0.03100
C1990       C  0.02907519  0.83138987  0.88574366     0.03700
N1991       N  0.00697656  0.85731293  0.88990015     0.66200
H1992       H  0.03029197  0.82332933  0.93719366     0.15100
H1993       H  0.07836506  0.79652642  0.83064429     0.14800
N1994       N  0.11547723  0.78297915  0.87835411     0.73900
O1995       O  0.97770631  0.85035057  0.89674748    -0.39500
O1996       O  0.01855335  0.88469341  0.89897272    -0.39500
O1997       O  0.12296545  0.76465673  0.85514252    -0.40200
O1998       O  0.13705865  0.80294156  0.88880214    -0.40200
C1999       C  0.07402245  0.80177530  0.66281685    -0.12500
C2000       C  0.04774185  0.82240508  0.66036675     0.04500
C2001       C  0.03955554  0.83342599  0.62876204    -0.07800
C2002       C  0.05427298  0.82023241  0.60132825    -0.08500
C2003       C  0.08023201  0.79936352  0.60371875    -0.03100
C2004       C  0.09115950  0.79138895  0.63530866     0.03700
N2005       N  0.12006203  0.77363638  0.64037519     0.66200
H2006       H  0.08295246  0.79556469  0.68648281     0.15100
H2007       H  0.04686839  0.82852288  0.57779011     0.14800
N2008       N  0.01965237  0.86089693  0.62367987     0.73900
O2009       O  0.14593701  0.78937713  0.64787445    -0.39500
O2010       O  0.11738849  0.74405253  0.64796940    -0.39500
O2011       O  0.03353707  0.88871072  0.62397431    -0.40200
O2012       O  0.52657201  0.88109221  0.61731548    -0.40200
C2013       C  0.07176089  0.70168869  0.88827619    -0.12500
C2014       C  0.10558221  0.70290740  0.88583435     0.04500
C2015       C  0.11954418  0.69566313  0.85537474    -0.07800
C2016       C  0.09900825  0.68907814  0.82836752    -0.08500
C2017       C  0.06489336  0.68808180  0.83151427    -0.03100
C2018       C  0.05222229  0.69308746  0.86232145     0.03700
N2019       N  0.01931099  0.68577335  0.86858287     0.66200
H2020       H  0.05979655  0.70668745  0.91098608     0.15100
H2021       H  0.10975572  0.68242589  0.80553242     0.14800
N2022       N  0.15384229  0.69291410  0.85147297     0.73900
O2023       O  0.51079200  0.66236643  0.88486572    -0.39500
O2024       O  0.49497133  0.70431229  0.85804586    -0.39500
O2025       O  0.16545347  0.66487873  0.85218141    -0.40200
O2026       O  0.16931019  0.71502973  0.83655163    -0.40200
C2027       C  0.06061389  0.65400688  0.62626643    -0.12500
C2028       C  0.05010860  0.67435207  0.65118939     0.04500
C2029       C  0.04727627  0.70764259  0.64520758    -0.07800
C2030       C  0.05456437  0.71954011  0.61424132    -0.08500
C2031       C  0.06533293  0.69901995  0.58935149    -0.03100
C2032       C  0.06750759  0.66575187  0.59573306     0.03700
N2033       N  0.07864508  0.64340018  0.57209232     0.66200
H2034       H  0.06330887  0.62826685  0.63015765     0.15100
H2035       H  0.05324736  0.74492526  0.61005574     0.14800
N2036       N  0.03946179  0.72964458  0.67076598     0.73900
O2037       O  0.10764770  0.63482686  0.57421441    -0.39500
O2038       O  0.05816912  0.62422696  0.55848916    -0.39500
O2039       O  0.50976343  0.74149868  0.68700705    -0.40200
O2040       O  0.49251624  0.75338175  0.63913689    -0.40200
O2041       O  0.57212759  0.22216726  0.03464949    -0.80400
O2042       O  0.57503728  0.28522615  0.47429733    -0.80400
O2043       O  0.62996127  0.27901196  0.07398857    -0.80400
O2044       O  0.65175833  0.23079480  0.41632234    -0.80400
O2045       O  0.58521065  0.28785244  0.04626117    -0.80500
O2046       O  0.61106722  0.20453089  0.44342746    -0.80400
O2047       O  0.61285196  0.26959939  0.44120074    -0.80400
O2048       O  0.61380714  0.21604194  0.06756848    -0.80400
C2049       C  0.58340427  0.21524791  0.06229689     1.09300
C2050       C  0.58585594  0.28207509  0.44517499     1.09200
C2051       C  0.60089598  0.28825310  0.07311845     1.09300
C2052       C  0.62590105  0.21221898  0.41578630     1.09200
O2053       O  0.63515348  0.18707309  0.46777963    -0.80400
O2054       O  0.64911325  0.31445911  0.03137713    -0.80500
O2055       O  0.66841448  0.20167914  0.03281734    -0.80400
O2056       O  0.67614827  0.28625846  0.46011193    -0.80400
O2057       O  0.63429825  0.31625884  0.47230028    -0.80400
O2058       O  0.62156189  0.17713796  0.01768954    -0.80400
O2059       O  0.68161709  0.21499178  0.47279954    -0.80300
O2060       O  0.68491996  0.27432005  0.03364895    -0.80400
Co2061     Co  0.59791239  0.21349696  0.99423689     1.51500
Co2062     Co  0.61161568  0.29495851  0.50736567     1.51700
Co2063     Co  0.64919777  0.24339493  0.04802218     1.51600
Co2064     Co  0.64745349  0.24480785  0.46083120     1.51500
O2065       O  0.62774196  0.25280290  0.00410140    -1.42300
C2066       C  0.66659397  0.18828393  0.46570154     1.09200
C2067       C  0.67825653  0.30463358  0.03504312     1.09300
C2068       C  0.65019980  0.17557578  0.03018955     1.09300
C2069       C  0.66317035  0.31421775  0.46353992     1.09200
O2070       O  0.89174549  0.21952653  0.06626915    -0.80400
O2071       O  0.87216311  0.28025190  0.43483171    -0.80400
O2072       O  0.92047513  0.21674714  0.45996693    -0.80400
O2073       O  0.92585970  0.29355423  0.02960973    -0.80400
O2074       O  0.87392083  0.22532291  0.43280171    -0.80500
O2075       O  0.88622521  0.28223424  0.06483957    -0.80400
O2076       O  0.91985061  0.28003376  0.45817439    -0.80400
O2077       O  0.93248839  0.21717846  0.03129153    -0.80400
C2078       C  0.92170295  0.21710289  0.06087255     1.09300
C2079       C  0.90337001  0.28379844  0.43224577     1.09200
C2080       C  0.90361530  0.21559050  0.43339996     1.09300
C2081       C  0.91502065  0.29306936  0.05858869     1.09200
O2082       O  0.82251451  0.27608119  0.03513155    -0.80400
O2083       O  0.82193101  0.20907518  0.47713560    -0.80500
O2084       O  0.87698742  0.17555916  0.02991428    -0.80400
O2085       O  0.89233589  0.33564704  0.47951741    -0.80400
O2086       O  0.85191620  0.30309013  0.45853844    -0.80400
O2087       O  0.83267155  0.20399853  0.03705740    -0.80400
O2088       O  0.86067336  0.31241044  0.02337283    -0.80300
O2089       O  0.86596573  0.17987220  0.47313205    -0.80400
Co2090     Co  0.85816785  0.24554837  0.04700962     1.51500
Co2091     Co  0.84498720  0.25051817  0.46466271     1.51700
Co2092     Co  0.89923342  0.20233580  0.99612452     1.51600
Co2093     Co  0.88918270  0.29166356  0.49426672     1.51500
O2094       O  0.87691567  0.24621035  0.00153315    -1.42300
C2095       C  0.83204300  0.30587495  0.03290766     1.09200
C2096       C  0.83520988  0.18213883  0.47204683     1.09300
C2097       C  0.84715846  0.17655080  0.03724852     1.09300
C2098       C  0.86567511  0.33266264  0.46343281     1.09200
O2099       O  0.70554202  0.02787502  0.17689336    -0.80400
O2100       O  0.78234532  0.46735591  0.17789239    -0.80400
O2101       O  0.67994128  0.45568528  0.13306131    -0.80400
O2102       O  0.81183822  0.03313633  0.12947215    -0.80400
O2103       O  0.71212479  0.45866491  0.17566564    -0.80500
O2104       O  0.78229859  0.03531479  0.17370908    -0.80400
O2105       O  0.81712923  0.47143750  0.13734179    -0.80400
O2106       O  0.67419504  0.01697960  0.13439873    -0.80400
C2107       C  0.67702059  0.02680294  0.16324791     1.09300
C2108       C  0.81140322  0.46668225  0.16735018     1.09200
C2109       C  0.68425710  0.45243801  0.16316977     1.09300
C2110       C  0.80978488  0.03927593  0.15891845     1.09200
O2111       O  0.76929779  0.06594588  0.11382845    -0.80400
O2112       O  0.72190752  0.42339244  0.11622615    -0.80500
O2113       O  0.70648699  0.02885181  0.07593602    -0.80400
O2114       O  0.78274116  0.45549750  0.07591142    -0.80400
O2115       O  0.78365079  0.42718587  0.12019543    -0.80400
O2116       O  0.70842367  0.06114321  0.11871081    -0.80400
O2117       O  0.77707741  0.03112274  0.07333786    -0.80300
O2118       O  0.71548067  0.45508841  0.07369356    -0.80400
Co2119     Co  0.74215607  0.04216214  0.14621027     1.51500
Co2120     Co  0.74955308  0.44905563  0.14713097     1.51700
Co2121     Co  0.69945265  0.98912107  0.10537730     1.51600
Co2122     Co  0.79247972  0.99722479  0.10477513     1.51500
O2123       O  0.74601127  0.99486253  0.12646594    -1.42300
C2124       C  0.77713815  0.06067097  0.08467347     1.09200
C2125       C  0.71571854  0.42670233  0.08644617     1.09300
C2126       C  0.70164711  0.05704345  0.08929964     1.09300
C2127       C  0.78702440  0.42818586  0.08985881     1.09200
O2128       O  0.68277220  0.03238995  0.36856583    -0.80400
O2129       O  0.81922314  0.47242275  0.36811995    -0.80400
O2130       O  0.79025160  0.03281141  0.32627699    -0.80400
O2131       O  0.71336792  0.46848118  0.32582825    -0.80400
O2132       O  0.82092012  0.03048780  0.36973578    -0.80500
O2133       O  0.68137954  0.47208447  0.36853241    -0.80400
O2134       O  0.78624112  0.46943135  0.32591165    -0.80400
O2135       O  0.71495544  0.03508465  0.32585117    -0.80400
C2136       C  0.68648727  0.03751679  0.33883030     1.09300
C2137       C  0.81462490  0.46696053  0.33824469     1.09200
C2138       C  0.81865912  0.03428081  0.33958081     1.09300
C2139       C  0.68522476  0.46513932  0.33900263     1.09200
O2140       O  0.71537663  0.46383037  0.42678771    -0.80400
O2141       O  0.78395814  0.03444110  0.42834281    -0.80500
O2142       O  0.72334865  0.07141146  0.38359717    -0.80400
O2143       O  0.78037671  0.43286055  0.38456109    -0.80400
O2144       O  0.78422437  0.46535596  0.42722938    -0.80400
O2145       O  0.71761974  0.04018214  0.42664748    -0.80400
O2146       O  0.71891167  0.43323889  0.38291321    -0.80300
O2147       O  0.78411669  0.06802409  0.38698564    -0.80400
Co2148     Co  0.70433485  0.00192902  0.39768576     1.51500
Co2149     Co  0.79673230  0.99955663  0.39799949     1.51700
Co2150     Co  0.75314822  0.04681692  0.35535948     1.51600
Co2151     Co  0.74990924  0.45600646  0.35502400     1.51500
O2152       O  0.75065140  0.00057735  0.37631524    -1.42300
C2153       C  0.71183751  0.43606647  0.41222107     1.09200
C2154       C  0.78895558  0.06268423  0.41676663     1.09300
C2155       C  0.71660744  0.06834822  0.41314501     1.09300
C2156       C  0.78819780  0.43750097  0.41398619     1.09200
O2157       O  0.53682761  0.17697414  0.20821592    -0.80400
O2158       O  0.96391013  0.17550970  0.28631403    -0.80400
O2159       O  0.97164295  0.13283712  0.17857688    -0.80400
O2160       O  0.53613521  0.14615706  0.31416643    -0.80400
O2161       O  0.96796818  0.17635804  0.21066379    -0.80500
O2162       O  0.54230950  0.18459064  0.27745559    -0.80400
O2163       O  0.96909199  0.13289065  0.31682337    -0.80400
O2164       O  0.53274692  0.13184691  0.17998910    -0.80400
C2165       C  0.53854704  0.16228451  0.18136287     1.09300
C2166       C  0.95897101  0.16135091  0.31337088     1.09200
C2167       C  0.96796267  0.16321623  0.18185252     1.09300
C2168       C  0.54640163  0.17451298  0.30612873     1.09200
O2169       O  0.57570835  0.12633384  0.27720990    -0.80400
O2170       O  0.93050219  0.12083382  0.21569769    -0.80500
O2171       O  0.53055745  0.07432959  0.21848035    -0.80400
O2172       O  0.96961256  0.07323613  0.28331917    -0.80400
O2173       O  0.93260886  0.11127016  0.27676096    -0.80400
O2174       O  0.56897654  0.11375983  0.21768444    -0.80400
O2175       O  0.54319486  0.08367564  0.28386157    -0.80300
O2176       O  0.95729571  0.07563005  0.21562879    -0.80400
Co2177     Co  0.55077568  0.15030514  0.24486474     1.51500
Co2178     Co  0.95431867  0.14615847  0.24783209     1.51700
Co2179     Co  0.49851209  0.10652005  0.20353810     1.51600
Co2180     Co  0.00341386  0.10781011  0.29462366     1.51500
O2181       O  0.00094300  0.12574631  0.24753550    -1.42300
C2182       C  0.57188245  0.09707878  0.28486717     1.09200
C2183       C  0.93065442  0.09076906  0.21202000     1.09300
C2184       C  0.56037126  0.08367117  0.21470363     1.09300
C2185       C  0.93988633  0.08200055  0.28402482     1.09200
O2186       O  0.52750241  0.36740600  0.18658535    -0.80400
O2187       O  0.96237193  0.36022937  0.31833689    -0.80400
O2188       O  0.54102170  0.32586848  0.29572297    -0.80400
O2189       O  0.96074819  0.32370893  0.21087918    -0.80400
O2190       O  0.52686855  0.36750829  0.32561988    -0.80500
O2191       O  0.96383027  0.36810523  0.18148899    -0.80400
O2192       O  0.95993800  0.31978641  0.28250540    -0.80400
O2193       O  0.54258468  0.32672504  0.21735208    -0.80400
C2194       C  0.54113226  0.34036974  0.18966301     1.09300
C2195       C  0.95737773  0.33005983  0.31154128     1.09200
C2196       C  0.53852030  0.33951123  0.32358374     1.09300
C2197       C  0.95925051  0.33758717  0.18339813     1.09200
O2198       O  0.95802622  0.42643105  0.21941513    -0.80400
O2199       O  0.53195381  0.42588688  0.29107695    -0.80500
O2200       O  0.56611196  0.38174691  0.23302629    -0.80400
O2201       O  0.92425429  0.37942046  0.28143041    -0.80400
O2202       O  0.95814776  0.42230289  0.28575819    -0.80400
O2203       O  0.53635155  0.42477532  0.22260380    -0.80400
O2204       O  0.92546517  0.38253383  0.21988795    -0.80300
O2205       O  0.56544771  0.38527178  0.28165556    -0.80400
Co2206     Co  0.49737302  0.39792160  0.20822277     1.51500
Co2207     Co  0.49513131  0.39345519  0.30075493     1.51700
Co2208     Co  0.53497373  0.35436369  0.25678001     1.51600
Co2209     Co  0.94629886  0.35120882  0.24891362     1.51500
O2210       O  0.49269699  0.37502573  0.25337858    -1.42300
C2211       C  0.92917752  0.41322297  0.21752138     1.09200
C2212       C  0.56094448  0.41455099  0.29110185     1.09300
C2213       C  0.56367415  0.41025112  0.22185517     1.09300
C2214       C  0.92937800  0.40970304  0.28711461     1.09200
C2215       C  0.86986066  0.41659966  0.28659831    -0.12500
C2216       C  0.90083272  0.42888073  0.29587382     0.04500
C2217       C  0.90311997  0.45602861  0.31662664    -0.07800
C2218       C  0.87454171  0.46889582  0.32914471    -0.08500
C2219       C  0.84335059  0.45651530  0.31977637    -0.03100
C2220       C  0.84136826  0.43026293  0.29785112     0.03700
N2221       N  0.81105652  0.41404516  0.29021541     0.66200
H2222       H  0.86753171  0.39480553  0.27182778     0.15100
H2223       H  0.87684487  0.48739242  0.34774153     0.14800
N2224       N  0.93412885  0.46850719  0.32769468     0.73900
O2225       O  0.80467564  0.38677071  0.30278124    -0.39500
O2226       O  0.79682708  0.42119192  0.26441295    -0.39500
O2227       O  0.95018697  0.48813464  0.31022949    -0.40200
O2228       O  0.95052435  0.95364889  0.35023789    -0.40200
C2229       C  0.61328020  0.44840945  0.28233953    -0.12500
C2230       C  0.59070573  0.43280647  0.30346115     0.04500
C2231       C  0.60197493  0.42570017  0.33454644    -0.07800
C2232       C  0.63361607  0.43421836  0.34390777    -0.08500
C2233       C  0.65560957  0.45049150  0.32347691    -0.03100
C2234       C  0.64583307  0.45684950  0.29205065     0.03700
N2235       N  0.66853530  0.47274746  0.27078595     0.66200
H2236       H  0.60545348  0.45491594  0.25872425     0.15100
H2237       H  0.64043920  0.42931819  0.36860298     0.14800
N2238       N  0.58147657  0.41098198  0.35816161     0.73900
O2239       O  0.69083255  0.45625935  0.25878931    -0.39500
O2240       O  0.67459704  0.50270543  0.27486183    -0.39500
O2241       O  0.58939861  0.38365702  0.36861196    -0.40200
O2242       O  0.56648844  0.42973307  0.37679947    -0.40200
C2243       C  0.87823891  0.04800839  0.34274115    -0.12500
C2244       C  0.85068690  0.04139447  0.32293530     0.04500
C2245       C  0.85640681  0.03889312  0.28964277    -0.07800
C2246       C  0.88733118  0.04832341  0.27715714    -0.08500
C2247       C  0.91298525  0.06032795  0.29704831    -0.03100
C2248       C  0.90875183  0.05719339  0.33038284     0.03700
N2249       N  0.93509271  0.06283090  0.35240290     0.66200
H2250       H  0.87660159  0.04521913  0.36852921     0.15100
H2251       H  0.89117443  0.04616799  0.25175025     0.14800
N2252       N  0.83250325  0.02418805  0.26867717     0.73900
O2253       O  0.93556257  0.08861203  0.36899213    -0.39500
O2254       O  0.94929805  0.03855498  0.36339643    -0.39500
O2255       O  0.81119065  0.04138236  0.25600674    -0.40200
O2256       O  0.83674786  0.99587051  0.25786411    -0.40200
C2257       C  0.66066770  0.07295153  0.29811077    -0.12500
C2258       C  0.65694634  0.04967916  0.32215165     0.04500
C2259       C  0.62460568  0.04219414  0.33337839    -0.07800
C2260       C  0.59774398  0.05777207  0.32059187    -0.08500
C2261       C  0.60141973  0.08061803  0.29643353    -0.03100
C2262       C  0.63364470  0.08880029  0.28555764     0.03700
N2263       N  0.63997143  0.11372191  0.26248231     0.66200
H2264       H  0.68490863  0.07997364  0.28987313     0.15100
H2265       H  0.57357664  0.05159912  0.32963247     0.14800
N2266       N  0.61748342  0.01760864  0.35652432     0.73900
O2267       O  0.64589043  0.10541960  0.23380027    -0.39500
O2268       O  0.65105373  0.14097244  0.27255020    -0.39500
O2269       O  0.61507396  0.02599205  0.38562567    -0.40200
O2270       O  0.60006117  0.99363126  0.34714412    -0.40200
C2271       C  0.86913026  0.41097608  0.20870518    -0.12500
C2272       C  0.89807260  0.43055448  0.21121280     0.04500
C2273       C  0.89531535  0.46406185  0.20612953    -0.07800
C2274       C  0.86505116  0.47613883  0.19644221    -0.08500
C2275       C  0.83837926  0.45533376  0.18808897    -0.03100
C2276       C  0.84056210  0.42225548  0.19525021     0.03700
N2277       N  0.81611275  0.39876515  0.18511182     0.66200
H2278       H  0.86904905  0.38548185  0.21456286     0.15100
H2279       H  0.86272713  0.50144074  0.19508974     0.14800
N2280       N  0.92278846  0.48597734  0.20944628     0.73900
O2281       O  0.81972220  0.38478347  0.15821297    -0.39500
O2282       O  0.79906363  0.38445527  0.20620563    -0.39500
O2283       O  0.94017359  0.49216741  0.18512709    -0.40200
O2284       O  0.92505454  0.50441219  0.23386927    -0.40200
C2285       C  0.62607216  0.45787021  0.17278606    -0.12500
C2286       C  0.65512708  0.44289289  0.18187589     0.04500
C2287       C  0.65343839  0.41696526  0.20406767    -0.07800
C2288       C  0.62325814  0.40831285  0.21702125    -0.08500
C2289       C  0.59426860  0.42384483  0.20834214    -0.03100
C2290       C  0.59585343  0.44865319  0.18554019     0.03700
N2291       N  0.56724064  0.46306309  0.17311988     0.66200
H2292       H  0.62654133  0.47632517  0.15442153     0.15100
H2293       H  0.62275971  0.38854760  0.23410812     0.14800
N2294       N  0.68053300  0.39719320  0.21233206     0.73900
O2295       O  0.55901249  0.49015471  0.18437339    -0.39500
O2296       O  0.55712432  0.45462832  0.14546644    -0.39500
O2297       O  0.69074179  0.39823696  0.24098007    -0.40200
O2298       O  0.68331218  0.37044697  0.19769729    -0.40200
C2299       C  0.90035729  0.05641051  0.17348216    -0.12500
C2300       C  0.89961715  0.07635192  0.20045512     0.04500
C2301       C  0.86890327  0.08778151  0.21131760    -0.07800
C2302       C  0.83993972  0.07414803  0.19870168    -0.08500
C2303       C  0.84067064  0.05232052  0.17301173    -0.03100
C2304       C  0.87157084  0.04615499  0.15826580     0.03700
N2305       N  0.87480842  0.02877191  0.12842418     0.66200
H2306       H  0.92353440  0.05058230  0.16270522     0.15100
H2307       H  0.81677087  0.08226547  0.20769704     0.14800
N2308       N  0.86633916  0.11438704  0.23363084     0.73900
O2309       O  0.88147039  0.54323955  0.10121111    -0.39500
O2310       O  0.88602498  0.49849603  0.12777012    -0.39500
O2311       O  0.86258343  0.14241468  0.22238213    -0.40200
O2312       O  0.85614692  0.10870378  0.26170831    -0.40200
C2313       C  0.63634669  0.03370154  0.20883537    -0.12500
C2314       C  0.64585141  0.03975950  0.17700821     0.04500
C2315       C  0.62184083  0.05342124  0.15634246    -0.07800
C2316       C  0.59401944  0.06705048  0.16934753    -0.08500
C2317       C  0.58534702  0.06209270  0.20121895    -0.03100
C2318       C  0.60493236  0.04210585  0.22004430     0.03700
N2319       N  0.59155907  0.02675598  0.24796037     0.66200
H2320       H  0.65184738  0.01922941  0.22336214     0.15100
H2321       H  0.57790761  0.08020366  0.15379353     0.14800
N2322       N  0.62244874  0.05008999  0.12197061     0.73900
O2323       O  0.61035455  0.01596967  0.26888362    -0.39500
O2324       O  0.56186726  0.01777664  0.24846910    -0.39500
O2325       O  0.61010418  0.02426415  0.10975485    -0.40200
O2326       O  0.62248123  0.07539307  0.10515599    -0.40200
C2327       C  0.78872907  0.36611175  0.08836056    -0.12500
C2328       C  0.79508825  0.39639532  0.07272644     0.04500
C2329       C  0.80970339  0.39480067  0.04203139    -0.07800
C2330       C  0.81868400  0.36468660  0.02887417    -0.08500
C2331       C  0.81347945  0.33486441  0.04465451    -0.03100
C2332       C  0.79762916  0.33582594  0.07459193     0.03700
N2333       N  0.79229935  0.30639983  0.09201940     0.66200
H2334       H  0.77692113  0.36586064  0.11165203     0.15100
H2335       H  0.83130148  0.36493691  0.00628802     0.14800
N2336       N  0.81714090  0.42339706  0.02402632     0.73900
O2337       O  0.81555767  0.29528558  0.10802874    -0.39500
O2338       O  0.76898340  0.28737582  0.08361675    -0.39500
O2339       O  0.84606208  0.43478518  0.02445821    -0.40200
O2340       O  0.79916184  0.42959497  0.00032011    -0.40200
C2341       C  0.80345765  0.14902892  0.06690748    -0.12500
C2342       C  0.82967939  0.14564896  0.04674682     0.04500
C2343       C  0.83822885  0.11340082  0.03768150    -0.07800
C2344       C  0.81843214  0.08626398  0.04705918    -0.08500
C2345       C  0.79192152  0.08991167  0.06789414    -0.03100
C2346       C  0.78543445  0.12239936  0.07825328     0.03700
N2347       N  0.76200738  0.13023865  0.10193177     0.66200
H2348       H  0.79755755  0.17313178  0.07559751     0.15100
H2349       H  0.82575633  0.06200819  0.04039935     0.14800
N2350       N  0.86815556  0.10700809  0.02176624     0.73900
O2351       O  0.77095709  0.12924167  0.13102443    -0.39500
O2352       O  0.74239174  0.15186845  0.09425957    -0.39500
O2353       O  0.89288032  0.10216847  0.03897962    -0.40200
O2354       O  0.86697578  0.09449613  0.99393275    -0.40200
C2355       C  0.83729628  0.41919134  0.44431589    -0.12500
C2356       C  0.80700755  0.41149090  0.42964346     0.04500
C2357       C  0.79883676  0.37818824  0.42457265    -0.07800
C2358       C  0.81804617  0.35423544  0.43692777    -0.08500
C2359       C  0.84827743  0.36127520  0.45089670    -0.03100
C2360       C  0.85850525  0.39447525  0.45377113     0.03700
N2361       N  0.89100442  0.40363776  0.46305464     0.66200
H2362       H  0.84560170  0.44442965  0.44631327     0.15100
H2363       H  0.80961695  0.32920395  0.43329100     0.14800
N2364       N  0.77245167  0.36689861  0.40497895     0.73900
O2365       O  0.91173835  0.40886311  0.44116145    -0.39500
O2366       O  0.89598964  0.41615755  0.49057114    -0.39500
O2367       O  0.77803813  0.36396272  0.37523761    -0.40200
O2368       O  0.75341330  0.34614604  0.41761000    -0.40200
C2369       C  0.78753988  0.10128860  0.46368712    -0.12500
C2370       C  0.80277414  0.09022851  0.43556289     0.04500
C2371       C  0.82599335  0.11063358  0.42033967    -0.07800
C2372       C  0.83189177  0.14179920  0.43132123    -0.08500
C2373       C  0.81724938  0.15350045  0.45905457    -0.03100
C2374       C  0.79378067  0.13343228  0.47550840     0.03700
N2375       N  0.77515883  0.14495142  0.50254524     0.66200
H2376       H  0.76879544  0.08592974  0.47460159     0.15100
H2377       H  0.85020968  0.15654349  0.41880927     0.14800
N2378       N  0.84541313  0.09987875  0.39419467     0.73900
O2379       O  0.75545514  0.12589532  0.51690600    -0.39500
O2380       O  0.77669684  0.17441302  0.51127578    -0.39500
O2381       O  0.83819339  0.10900185  0.36621184    -0.40200
O2382       O  0.87478769  0.09424108  0.40035415    -0.40200
C2383       C  0.94802479  0.28321669  0.38984973    -0.12500
C2384       C  0.91716291  0.29328125  0.39976572     0.04500
C2385       C  0.89828845  0.31008973  0.37666878    -0.07800
C2386       C  0.91111062  0.31810200  0.34652134    -0.08500
C2387       C  0.94227696  0.30973663  0.33739306     0.02300
C2388       C  0.96025778  0.29031647  0.35852522     0.03700
N2389       N  0.99079568  0.27776733  0.34865799     0.66200
H2390       H  0.96218730  0.26893463  0.40620043     0.15100
H2391       H  0.89703057  0.33311346  0.33065607     0.14800
N2392       N  0.86694472  0.32228203  0.38362849     0.73900
O2393       O  0.51268702  0.26796430  0.37112228    -0.39500
O2394       O  0.99660171  0.27292631  0.31915728    -0.39500
O2395       O  0.86459803  0.35280618  0.38458628    -0.40200
O2396       O  0.84224155  0.30528111  0.37493209    -0.40200
C2397       C  0.91333298  0.32864169  0.10559182    -0.12500
C2398       C  0.93243422  0.30823413  0.08679764     0.04500
C2399       C  0.96076787  0.29556572  0.10106634    -0.07800
C2400       C  0.96782302  0.30196745  0.13419373    -0.08500
C2401       C  0.94759906  0.32149751  0.15299482    -0.03100
C2402       C  0.92018956  0.33455334  0.13802797     0.03700
N2403       N  0.89806944  0.35318940  0.15620127     0.66200
H2404       H  0.89109031  0.33805827  0.09565006     0.15100
H2405       H  0.99005109  0.29333823  0.14468555     0.14800
N2406       N  0.98316102  0.27737668  0.08232725     0.73900
O2407       O  0.89747092  0.38349913  0.15212946    -0.39500
O2408       O  0.88243224  0.34007779  0.17902191    -0.39500
O2409       O  0.99257994  0.28796136  0.05538637    -0.40200
O2410       O  0.99869625  0.25511965  0.09542495    -0.40200
C2411       C  0.90865111  0.21502950  0.37163952    -0.12500
C2412       C  0.91756384  0.20241654  0.40217240     0.04500
C2413       C  0.93685703  0.17466837  0.40177411    -0.07800
C2414       C  0.94649696  0.16083321  0.37248124    -0.08500
C2415       C  0.94147020  0.17543248  0.34245395    -0.03100
C2416       C  0.92120448  0.20237362  0.34215861     0.03700
N2417       N  0.91156919  0.21548974  0.31205830     0.66200
H2418       H  0.89217712  0.23500880  0.37061294     0.15100
H2419       H  0.96151314  0.13987485  0.37393021     0.14800
N2420       N  0.94742439  0.15974349  0.43073758     0.73900
O2421       O  0.89128618  0.19935724  0.29484787    -0.39500
O2422       O  0.92983453  0.23671763  0.29893167    -0.39500
O2423       O  0.97641895  0.16535369  0.43996739    -0.40200
O2424       O  0.93313231  0.13365359  0.43936001    -0.40200
C2425       C  0.96170305  0.18396548  0.09067932    -0.12500
C2426       C  0.94049554  0.20972184  0.09119206     0.04500
C2427       C  0.93006386  0.22088419  0.12252199    -0.07800
C2428       C  0.94377512  0.20883640  0.15098121    -0.08500
C2429       C  0.96194020  0.18087349  0.15049402    -0.03100
C2430       C  0.96932367  0.16733497  0.11921217     0.03700
N2431       N  0.97833186  0.13419159  0.11497004     0.66200
H2432       H  0.96739936  0.17286948  0.06762888     0.15100
H2433       H  0.93561960  0.21820023  0.17400908     0.14800
N2434       N  0.90132960  0.23932226  0.12687769     0.73900
O2435       O  0.95620150  0.11233055  0.11749453    -0.39500
O2436       O  0.00226979  0.12821042  0.09718182    -0.39500
O2437       O  0.87420124  0.22394272  0.12703209    -0.40200
O2438       O  0.90360431  0.26534712  0.14309590    -0.40200
C2439       C  0.68905758  0.34688279  0.42225922    -0.12500
C2440       C  0.67808676  0.34554974  0.45356245     0.04500
C2441       C  0.67296907  0.37575965  0.47023157    -0.07800
C2442       C  0.68684002  0.40479001  0.45800660    -0.08500
C2443       C  0.69798799  0.40566851  0.42635422    -0.03100
C2444       C  0.69451544  0.37648665  0.40727823     0.03700
N2445       N  0.69327537  0.37602617  0.37271032     0.66200
H2446       H  0.69173110  0.32481557  0.40828540     0.15100
H2447       H  0.68551826  0.42724393  0.47180710     0.14800
N2448       N  0.64992150  0.37860058  0.49598193     0.73900
O2449       O  0.71720401  0.36563495  0.35719803    -0.39500
O2450       O  0.66560537  0.37369645  0.35943786    -0.39500
O2451       O  0.65834649  0.39525888  0.02065768    -0.40200
O2452       O  0.62000101  0.37547270  0.48911613    -0.40200
C2453       C  0.66029089  0.13261986  0.44377895    -0.12500
C2454       C  0.68163516  0.15871292  0.45224267     0.04500
C2455       C  0.71431504  0.15676100  0.44296949    -0.07800
C2456       C  0.72562794  0.12672927  0.43117437    -0.08500
C2457       C  0.70488075  0.09848677  0.42896580    -0.03100
C2458       C  0.67126225  0.10365245  0.43096338     0.03700
N2459       N  0.64784962  0.08336107  0.41423319     0.66200
H2460       H  0.63412084  0.13491983  0.44533560     0.15100
H2461       H  0.74985585  0.12621756  0.42124556     0.14800
N2462       N  0.73383546  0.18594009  0.43941698     0.73900
O2463       O  0.62631688  0.06848600  0.43049762    -0.39500
O2464       O  0.64078100  0.09124406  0.38581689    -0.39500
O2465       O  0.74570263  0.20003364  0.46407586    -0.40200
O2466       O  0.73045460  0.20232241  0.41417765    -0.40200
C2467       C  0.72408878  0.38427995  0.04279019    -0.12500
C2468       C  0.70706946  0.39553507  0.06980369     0.04500
C2469       C  0.68749487  0.37285371  0.08693178    -0.07800
C2470       C  0.68729033  0.34009586  0.07917856    -0.08500
C2471       C  0.70030207  0.32931168  0.05028389    -0.03100
C2472       C  0.72051396  0.35121347  0.03249555     0.03700
N2473       N  0.73926614  0.33974821  0.00583928     0.66200
H2474       H  0.74045356  0.40093989  0.03027382     0.15100
H2475       H  0.67147383  0.32389457  0.09301963     0.14800
N2476       N  0.66601430  0.38273500  0.11175712     0.73900
O2477       O  0.75233642  0.35980280  0.98665103    -0.39500
O2478       O  0.74783764  0.31054636  0.00492279    -0.39500
O2479       O  0.63692757  0.38840353  0.10436166    -0.40200
O2480       O  0.67179762  0.37320158  0.13972142    -0.40200
C2481       C  0.67535933  0.14500490  0.07432641    -0.12500
C2482       C  0.66210956  0.14360775  0.04325747     0.04500
C2483       C  0.65636175  0.11151126  0.02985686    -0.07800
C2484       C  0.67368580  0.08495582  0.04252750    -0.08500
C2485       C  0.68730625  0.08662310  0.07348084    -0.03100
C2486       C  0.68344569  0.11673252  0.09091507     0.03700
N2487       N  0.68226450  0.11864385  0.12561568     0.66200
H2488       H  0.67533653  0.16788009  0.08763009     0.15100
H2489       H  0.67228602  0.06142994  0.03050591     0.14800
N2490       N  0.62913056  0.10353453  0.00894817     0.73900
O2491       O  0.70654767  0.12989547  0.14118778    -0.39500
O2492       O  0.65475314  0.12053291  0.13884934    -0.39500
O2493       O  0.64550207  0.07567387  0.48930389    -0.40200
O2494       O  0.60300153  0.11848865  0.01187992    -0.40200
C2495       C  0.54721989  0.31800062  0.41433469    -0.12500
C2496       C  0.57236629  0.29598160  0.41396571     0.04500
C2497       C  0.58824252  0.29122793  0.38310352    -0.07800
C2498       C  0.57495519  0.30307668  0.35438901    -0.08500
C2499       C  0.54980040  0.32478079  0.35484711    -0.03100
C2500       C  0.53736710  0.33379605  0.38589370     0.03700
N2501       N  0.51560826  0.35988920  0.38967307     0.66200
H2502       H  0.53639068  0.32465685  0.43715367     0.15100
H2503       H  0.58694153  0.29828795  0.33164120     0.14800
N2504       N  0.62120070  0.28124135  0.38052438     0.73900
O2505       O  0.48543154  0.35344357  0.39045941    -0.39500
O2506       O  0.52618513  0.38574439  0.40319806    -0.39500
O2507       O  0.62917296  0.26353604  0.35703309    -0.40200
O2508       O  0.64291530  0.29984975  0.39264734    -0.40200
C2509       C  0.58084961  0.30386026  0.16243644    -0.12500
C2510       C  0.55716670  0.32738472  0.15995260     0.04500
C2511       C  0.55136479  0.34044684  0.12874903    -0.07800
C2512       C  0.56476831  0.32625246  0.10127785    -0.08500
C2513       C  0.58679449  0.30138675  0.10354492    -0.03100
C2514       C  0.59647579  0.29157597  0.13492980     0.03700
N2515       N  0.62264864  0.27002471  0.13975422     0.66200
H2516       H  0.58834701  0.29588040  0.18603337     0.15100
H2517       H  0.55933682  0.33629314  0.07789489     0.14800
N2518       N  0.53512053  0.37026337  0.12420086     0.73900
O2519       O  0.65033428  0.28219430  0.14711522    -0.39500
O2520       O  0.61609717  0.24090182  0.14724318    -0.39500
O2521       O  0.55251477  0.39544044  0.11880377    -0.40200
O2522       O  0.99770369  0.36051165  0.11032471    -0.40200
C2523       C  0.57482053  0.20527765  0.38698828    -0.12500
C2524       C  0.60853615  0.20294805  0.38535204     0.04500
C2525       C  0.62244284  0.19488043  0.35510482    -0.07800
C2526       C  0.60200149  0.18971145  0.32778939    -0.08500
C2527       C  0.56794266  0.19173180  0.33017388    -0.03100
C2528       C  0.55511458  0.19906591  0.36044637     0.03700
N2529       N  0.52175714  0.19385910  0.36618812     0.66200
H2530       H  0.56303202  0.21119447  0.40957494     0.15100
H2531       H  0.61259415  0.18191596  0.30525033     0.14800
N2532       N  0.65660796  0.19079913  0.35151824     0.73900
O2533       O  0.00979413  0.17360767  0.37757961    -0.39500
O2534       O  0.99755929  0.21073389  0.34280158    -0.39500
O2535       O  0.66707915  0.16227981  0.35156036    -0.40200
O2536       O  0.67314286  0.21275602  0.33744108    -0.40200
C2537       C  0.55743278  0.15792116  0.12607797    -0.12500
C2538       C  0.54734881  0.17836629  0.15083556     0.04500
C2539       C  0.54443703  0.21172275  0.14465688    -0.07800
C2540       C  0.55146028  0.22353166  0.11339252    -0.08500
C2541       C  0.56271962  0.20257639  0.08884131    -0.03100
C2542       C  0.56447522  0.16933696  0.09567068     0.03700
N2543       N  0.57646788  0.14653646  0.07303959     0.66200
H2544       H  0.56039034  0.13219161  0.13014206     0.15100
H2545       H  0.55004470  0.24916482  0.10893390     0.14800
N2546       N  0.53756694  0.23383143  0.17042625     0.73900
O2547       O  0.60410254  0.13550405  0.07873325    -0.39500
O2548       O  0.55599287  0.12857117  0.05793842    -0.39500
O2549       O  0.06167109  0.23497293  0.19003186    -0.40200
O2550       O  0.01071517  0.23266217  0.17563940    -0.40200
O2551       O  0.57683943  0.21763507  0.53598889    -0.80400
O2552       O  0.57394852  0.29020389  0.97268945    -0.80400
O2553       O  0.63278017  0.27561616  0.57545683    -0.80400
O2554       O  0.64969022  0.23342132  0.91624773    -0.80400
O2555       O  0.58759416  0.28283174  0.54783714    -0.80500
O2556       O  0.60790828  0.20827275  0.94278752    -0.80400
O2557       O  0.61195877  0.27378571  0.94008076    -0.80400
O2558       O  0.61926900  0.21206880  0.56812431    -0.80400
C2559       C  0.58883668  0.21073500  0.56330102     1.09300
C2560       C  0.58522004  0.28685556  0.94379912     1.09200
C2561       C  0.60348268  0.28439431  0.57456732     1.09300
C2562       C  0.62332979  0.21558929  0.91540726     1.09200
O2563       O  0.63129734  0.18997695  0.96740677    -0.80400
O2564       O  0.65021264  0.31195939  0.53253772    -0.80500
O2565       O  0.67366463  0.20019642  0.53250027    -0.80400
O2566       O  0.67525172  0.28859007  0.95985205    -0.80400
O2567       O  0.63425252  0.32001062  0.97114572    -0.80400
O2568       O  0.62721052  0.17413315  0.51816499    -0.80400
O2569       O  0.67800108  0.21739847  0.97345480    -0.80300
O2570       O  0.68756395  0.27328995  0.53404522    -0.80400
Co2571     Co  0.60187283  0.20961271  0.49520424     1.51500
Co2572     Co  0.61025673  0.29902326  0.00599621     1.51700
Co2573     Co  0.65320560  0.24093018  0.54858167     1.51600
Co2574     Co  0.64515912  0.24793174  0.96047953     1.51500
O2575       O  0.63083270  0.24949805  0.50486740    -1.42300
C2576       C  0.66281208  0.19083952  0.96624739     1.09200
C2577       C  0.67981525  0.30330467  0.53555179     1.09300
C2578       C  0.65619092  0.17358121  0.53009105     1.09300
C2579       C  0.66323100  0.31706684  0.96279499     1.09200
O2580       O  0.88939298  0.22221451  0.57052381    -0.80400
O2581       O  0.87445600  0.28198555  0.93427460    -0.80400
O2582       O  0.91939342  0.21641514  0.95348384    -0.80400
O2583       O  0.92277799  0.29532703  0.52955001    -0.80400
O2584       O  0.87190139  0.22831040  0.92933038    -0.80500
O2585       O  0.88374025  0.28449325  0.56562660    -0.80400
O2586       O  0.92258942  0.27950526  0.95691689    -0.80400
O2587       O  0.93050307  0.21933394  0.53605582    -0.80400
C2588       C  0.91938484  0.21960478  0.56540631     1.09300
C2589       C  0.90579094  0.28428919  0.93131652     1.09200
C2590       C  0.90085893  0.21686966  0.92782131     1.09300
C2591       C  0.91269904  0.29465158  0.55872981     1.09200
O2592       O  0.81953980  0.27579101  0.53609342    -0.80400
O2593       O  0.82154438  0.21061017  0.97389462    -0.80500
O2594       O  0.87592747  0.17676960  0.53508971    -0.80400
O2595       O  0.89791198  0.33536736  0.98036123    -0.80400
O2596       O  0.85587120  0.30546550  0.95839218    -0.80400
O2597       O  0.83085667  0.20432573  0.54063619    -0.80400
O2598       O  0.85680545  0.31269696  0.52378332    -0.80300
O2599       O  0.86562307  0.18196421  0.96853833    -0.80400
Co2600     Co  0.85579028  0.24672383  0.54933673     1.51500
Co2601     Co  0.84568652  0.25295041  0.96354583     1.51700
Co2602     Co  0.89849629  0.20254241  0.50104013     1.51600
Co2603     Co  0.89266922  0.29127617  0.99358630     1.51500
O2604       O  0.87518795  0.24626930  0.50395370    -1.42300
C2605       C  0.82835772  0.30567875  0.53355553     1.09200
C2606       C  0.83484209  0.18346057  0.96904556     1.09300
C2607       C  0.84590308  0.17719663  0.54142739     1.09300
C2608       C  0.87143350  0.33415388  0.96394582     1.09200
O2609       O  0.70548352  0.02774667  0.67978613    -0.80400
O2610       O  0.78222346  0.46623453  0.68101988    -0.80400
O2611       O  0.67937380  0.45845491  0.63639063    -0.80400
O2612       O  0.81353447  0.03043624  0.63696353    -0.80400
O2613       O  0.71135916  0.46012521  0.67916090    -0.80500
O2614       O  0.78224461  0.03327873  0.68002714    -0.80400
O2615       O  0.81678538  0.46748646  0.64034823    -0.80400
O2616       O  0.67548083  0.01820787  0.63605096    -0.80400
C2617       C  0.67747994  0.02738981  0.66519523     1.09300
C2618       C  0.81118940  0.46415629  0.67048501     1.09200
C2619       C  0.68338298  0.45500911  0.66638407     1.09300
C2620       C  0.81045203  0.03626827  0.66641551     1.09200
O2621       O  0.77283469  0.06463557  0.61998155    -0.80400
O2622       O  0.71940045  0.42322828  0.62066968    -0.80500
O2623       O  0.71047963  0.02792885  0.57893429    -0.80400
O2624       O  0.78182314  0.45450615  0.57877811    -0.80400
O2625       O  0.78100616  0.42551563  0.62283542    -0.80400
O2626       O  0.71186769  0.06078049  0.62150158    -0.80400
O2627       O  0.78054005  0.03007618  0.57935211    -0.80300
O2628       O  0.71399318  0.45389466  0.57753147    -0.80400
Co2629     Co  0.74363570  0.04124320  0.65077375     1.51500
Co2630     Co  0.74834886  0.44878061  0.65053582     1.51700
Co2631     Co  0.70094594  0.98895632  0.60839047     1.51600
Co2632     Co  0.79390828  0.99542620  0.61112699     1.51500
O2633       O  0.74675871  0.99395052  0.63104255    -1.42300
C2634       C  0.78059297  0.05957143  0.59081821     1.09200
C2635       C  0.71370039  0.42570237  0.59076368     1.09300
C2636       C  0.70575543  0.05629947  0.59197198     1.09300
C2637       C  0.78451972  0.42683054  0.59245285     1.09200
O2638       O  0.68282489  0.03542835  0.87065474    -0.80400
O2639       O  0.81393167  0.47770092  0.85916219    -0.80400
O2640       O  0.79444929  0.03838520  0.83469697    -0.80400
O2641       O  0.71222108  0.46763662  0.82351406    -0.80400
O2642       O  0.82211161  0.02714076  0.87920557    -0.80500
O2643       O  0.67925401  0.47460280  0.86513685    -0.80400
O2644       O  0.78152033  0.46784969  0.81960602    -0.80400
O2645       O  0.71703542  0.04175656  0.82912425    -0.80400
C2646       C  0.68773845  0.04174979  0.84124068     1.09300
C2647       C  0.80996030  0.46797512  0.83066613     1.09200
C2648       C  0.82198093  0.03722141  0.85012471     1.09300
C2649       C  0.68372332  0.46638661  0.83591154     1.09200
O2650       O  0.71344059  0.46869095  0.92460453    -0.80400
O2651       O  0.77980139  0.03103033  0.93433142    -0.80500
O2652       O  0.72301963  0.07550484  0.88705118    -0.80400
O2653       O  0.78303731  0.44008787  0.88872538    -0.80400
O2654       O  0.81491122  0.47421857  0.91961299    -0.80400
O2655       O  0.71700492  0.04347054  0.92925994    -0.80400
O2656       O  0.71830710  0.43690150  0.88226928    -0.80300
O2657       O  0.78467929  0.06778571  0.89562447    -0.80400
Co2658     Co  0.70310008  0.00529657  0.90072261     1.51500
Co2659     Co  0.78832606  0.99806963  0.90000528     1.51700
Co2660     Co  0.75456654  0.05168178  0.86057711     1.51600
Co2661     Co  0.74894738  0.45835793  0.85389549     1.51500
O2662       O  0.74765800  0.00518841  0.87729821    -1.42300
C2663       C  0.71151842  0.44015316  0.91133254     1.09200
C2664       C  0.78690919  0.06000083  0.92524312     1.09300
C2665       C  0.71587561  0.07176385  0.91636944     1.09300
C2666       C  0.80558481  0.44515391  0.91112062     1.09200
O2667       O  0.53797811  0.17559600  0.70841091    -0.80400
O2668       O  0.92932890  0.16787333  0.77318102    -0.80400
O2669       O  0.96862218  0.13281509  0.67979097    -0.80400
O2670       O  0.53544614  0.14693608  0.81478772    -0.80400
O2671       O  0.96856646  0.17572144  0.71293349    -0.80500
O2672       O  0.54142397  0.18462445  0.77725778    -0.80400
O2673       O  0.96931535  0.15053369  0.80412411    -0.80400
O2674       O  0.53385026  0.13012460  0.68070099    -0.80400
C2675       C  0.54075094  0.16032937  0.68201198     1.09300
C2676       C  0.94225815  0.16568941  0.80113345     1.09200
C2677       C  0.96635790  0.16317364  0.68398642     1.09300
C2678       C  0.54516055  0.17533502  0.80621625     1.09200
O2679       O  0.57500878  0.12644039  0.77897899    -0.80400
O2680       O  0.93069425  0.12198967  0.72419710    -0.80500
O2681       O  0.53076852  0.07355370  0.72014376    -0.80400
O2682       O  0.97685802  0.08851939  0.82096831    -0.80400
O2683       O  0.94651968  0.10389171  0.77945553    -0.80400
O2684       O  0.56945652  0.11270108  0.71951503    -0.80400
O2685       O  0.54264433  0.08362052  0.78543356    -0.80300
O2686       O  0.95831392  0.07729169  0.71709001    -0.80400
Co2687     Co  0.55091403  0.14976081  0.74575305     1.51500
Co2688     Co  0.96317295  0.14452320  0.75115622     1.51700
Co2689     Co  0.49922541  0.10572978  0.70447529     1.51600
Co2690     Co  0.99889553  0.11222330  0.78674337     1.51500
O2691       O  0.00561613  0.12640213  0.74171008    -1.42300
C2692       C  0.57133481  0.09712804  0.78637090     1.09200
C2693       C  0.93114813  0.09231233  0.71666692     1.09300
C2694       C  0.56061592  0.08268339  0.71645873     1.09300
C2695       C  0.94964796  0.08685077  0.80536780     1.09200
O2696       O  0.52771847  0.36747930  0.68467188    -0.80400
O2697       O  0.96219907  0.35892922  0.81673747    -0.80400
O2698       O  0.54066092  0.32648962  0.79383593    -0.80400
O2699       O  0.96459494  0.32398633  0.70921759    -0.80400
O2700       O  0.52452565  0.36771157  0.82332322    -0.80500
O2701       O  0.96706457  0.36889290  0.68063600    -0.80400
O2702       O  0.96218893  0.31856721  0.78078361    -0.80400
O2703       O  0.54147311  0.32668834  0.71609034    -0.80400
C2704       C  0.54069620  0.34001962  0.68824183     1.09300
C2705       C  0.95794487  0.32863519  0.80965953     1.09200
C2706       C  0.53740700  0.34029178  0.82146523     1.09300
C2707       C  0.96226122  0.33828991  0.68205712     1.09200
O2708       O  0.95979204  0.42720800  0.71991294    -0.80400
O2709       O  0.53048129  0.42611464  0.78910976    -0.80500
O2710       O  0.56447498  0.38265154  0.73123451    -0.80400
O2711       O  0.92432494  0.37702087  0.77953897    -0.80400
O2712       O  0.95588651  0.42111449  0.78422426    -0.80400
O2713       O  0.53415163  0.42539847  0.72114715    -0.80400
O2714       O  0.92878686  0.38248315  0.71878671    -0.80300
O2715       O  0.56421916  0.38559886  0.78016742    -0.80400
Co2716     Co  0.49628541  0.39732954  0.70666200     1.51500
Co2717     Co  0.49315887  0.39406836  0.79881118     1.51700
Co2718     Co  0.53398382  0.35470235  0.75510622     1.51600
Co2719     Co  0.94981540  0.35077341  0.74746243     1.51500
O2720       O  0.49155266  0.37470923  0.75189684    -1.42300
C2721       C  0.93130264  0.41332047  0.71769723     1.09200
C2722       C  0.55949967  0.41482508  0.78960368     1.09300
C2723       C  0.56166474  0.41129657  0.72050920     1.09300
C2724       C  0.92761789  0.40733401  0.78564298     1.09200
C2725       C  0.86691783  0.41202036  0.78540005    -0.12500
C2726       C  0.89780984  0.42551351  0.79378248     0.04500
C2727       C  0.89926178  0.45448636  0.81193310    -0.07800
C2728       C  0.87030478  0.46833856  0.82246911    -0.08500
C2729       C  0.83917764  0.45556734  0.81339913    -0.03100
C2730       C  0.83791505  0.42694354  0.79430785     0.03700
N2731       N  0.80773490  0.41016496  0.78722254     0.66200
H2732       H  0.86507597  0.38898651  0.77252810     0.15100
H2733       H  0.87232355  0.48784665  0.83979603     0.14800
N2734       N  0.92992884  0.46827438  0.82251402     0.73900
O2735       O  0.80017478  0.38498113  0.80299666    -0.39500
O2736       O  0.79486131  0.41393807  0.75995951    -0.39500
O2737       O  0.94572998  0.48709329  0.80402547    -0.40200
O2738       O  0.94368671  0.94706633  0.85550447    -0.40200
C2739       C  0.60980910  0.45186983  0.78129665    -0.12500
C2740       C  0.58919357  0.43322392  0.80193298     0.04500
C2741       C  0.60249209  0.42384380  0.83160694    -0.07800
C2742       C  0.63425858  0.43276593  0.84006270    -0.08500
C2743       C  0.65461143  0.45125572  0.81999108    -0.03100
C2744       C  0.64269364  0.46030040  0.78981945     0.03700
N2745       N  0.66349768  0.47841049  0.76841675     0.66200
H2746       H  0.60053656  0.45958732  0.75851602     0.15100
H2747       H  0.64232575  0.42688057  0.86414492     0.14800
N2748       N  0.58356582  0.40754772  0.85542229     0.73900
O2749       O  0.68817798  0.46517978  0.75683576    -0.39500
O2750       O  0.66347053  0.50897960  0.76941153    -0.39500
O2751       O  0.59343096  0.38058065  0.86501137    -0.40200
O2752       O  0.56877861  0.42524189  0.87519849    -0.40200
C2753       C  0.88313531  0.04361856  0.85625738    -0.12500
C2754       C  0.85522878  0.04563476  0.83616605     0.04500
C2755       C  0.86065397  0.05543453  0.80438117    -0.07800
C2756       C  0.89205912  0.06634169  0.79480574    -0.08500
C2757       C  0.91914922  0.06823682  0.81612206    -0.03100
C2758       C  0.91434622  0.05521083  0.84706064     0.03700
N2759       N  0.94018374  0.05419265  0.87007166     0.66200
H2760       H  0.88071861  0.03358626  0.88014563     0.15100
H2761       H  0.89498247  0.07422404  0.77036026     0.14800
N2762       N  0.83515250  0.05289732  0.78102627     0.73900
O2763       O  0.94338611  0.07712236  0.89038773    -0.39500
O2764       O  0.95157341  0.02694571  0.87679619    -0.39500
O2765       O  0.81543700  0.07559684  0.77820530    -0.40200
O2766       O  0.83571859  0.03068878  0.75986785    -0.40200
C2767       C  0.66078122  0.07532231  0.79949203    -0.12500
C2768       C  0.65781163  0.05271771  0.82417939     0.04500
C2769       C  0.62554552  0.04437887  0.83542718    -0.07800
C2770       C  0.59816826  0.05850583  0.82204084    -0.08500
C2771       C  0.60118373  0.08098314  0.79753791    -0.03100
C2772       C  0.63321897  0.08992872  0.78654090     0.03700
N2773       N  0.63881815  0.11465285  0.76310711     0.66200
H2774       H  0.68480903  0.08295358  0.79114178     0.15100
H2775       H  0.57417085  0.05183939  0.83122216     0.14800
N2776       N  0.61909133  0.02103972  0.85997340     0.73900
O2777       O  0.64596332  0.10612817  0.73477833    -0.39500
O2778       O  0.64822748  0.14257923  0.77288451    -0.39500
O2779       O  0.61358014  0.03149529  0.88795966    -0.40200
O2780       O  0.60472055  0.99482392  0.85156025    -0.40200
C2781       C  0.87124686  0.40909635  0.70899793    -0.12500
C2782       C  0.89922490  0.42977798  0.71289761     0.04500
C2783       C  0.89414906  0.46342990  0.71180259    -0.07800
C2784       C  0.86307563  0.47447956  0.70294840    -0.08500
C2785       C  0.83815485  0.45297038  0.69140525    -0.03100
C2786       C  0.84245248  0.41964655  0.69545572     0.03700
N2787       N  0.81992916  0.39572252  0.68239182     0.66200
H2788       H  0.87217536  0.38351365  0.71402785     0.15100
H2789       H  0.85898324  0.49998693  0.70414358     0.14800
N2790       N  0.91939246  0.48655607  0.72038814     0.73900
O2791       O  0.82482920  0.38527627  0.65418207    -0.39500
O2792       O  0.80360594  0.37796570  0.70143169    -0.39500
O2793       O  0.94024777  0.49503045  0.69960345    -0.40200
O2794       O  0.91604941  0.50400527  0.74523460    -0.40200
C2795       C  0.62458079  0.45825397  0.67194241    -0.12500
C2796       C  0.65369492  0.44543098  0.68401163     0.04500
C2797       C  0.65164928  0.42082990  0.70744913    -0.07800
C2798       C  0.62119609  0.41198510  0.71940130    -0.08500
C2799       C  0.59220247  0.42564187  0.70805719    -0.03100
C2800       C  0.59401691  0.44830987  0.68314924     0.03700
N2801       N  0.56584359  0.45822106  0.66590219     0.66200
H2802       H  0.62539088  0.47572787  0.65255950     0.15100
H2803       H  0.62044804  0.39334114  0.73769430     0.14800
N2804       N  0.67858716  0.40178234  0.71727662     0.73900
O2805       O  0.55651876  0.48688725  0.66963516    -0.39500
O2806       O  0.55913233  0.44407500  0.63956237    -0.39500
O2807       O  0.68799811  0.40414731  0.74615980    -0.40200
O2808       O  0.68138706  0.37440380  0.70392842    -0.40200
C2809       C  0.90068402  0.05161419  0.68398329    -0.12500
C2810       C  0.89977188  0.07722986  0.70586713     0.04500
C2811       C  0.86896529  0.09096294  0.71295434    -0.07800
C2812       C  0.84007652  0.07499171  0.70278885    -0.08500
C2813       C  0.84101549  0.04858797  0.68168272    -0.03100
C2814       C  0.87217632  0.03887859  0.66996835     0.03700
N2815       N  0.87590221  0.01732338  0.64294235     0.66200
H2816       H  0.92393920  0.04333691  0.67533588     0.15100
H2817       H  0.81685706  0.08532176  0.70881068     0.14800
N2818       N  0.86631030  0.12309198  0.72608989     0.73900
O2819       O  0.88082465  0.53492983  0.60766378    -0.39500
O2820       O  0.88865176  0.49336905  0.63805037    -0.39500
O2821       O  0.86025944  0.14587834  0.70704480    -0.40200
O2822       O  0.85978879  0.12668830  0.75555362    -0.40200
C2823       C  0.63694713  0.03398686  0.71085197    -0.12500
C2824       C  0.64597468  0.03954157  0.67875372     0.04500
C2825       C  0.62140860  0.05193752  0.65788448    -0.07800
C2826       C  0.59342374  0.06525581  0.67079754    -0.08500
C2827       C  0.58531197  0.06096524  0.70289513    -0.03100
C2828       C  0.60532366  0.04168219  0.72189727     0.03700
N2829       N  0.59185972  0.02569827  0.74939352     0.66200
H2830       H  0.65295970  0.02034794  0.72581243     0.15100
H2831       H  0.57674568  0.07745379  0.65507079     0.14800
N2832       N  0.62157054  0.04720815  0.62363895     0.73900
O2833       O  0.61049539  0.01609596  0.77103221    -0.39500
O2834       O  0.56283239  0.01459940  0.74856692    -0.39500
O2835       O  0.60764291  0.02169421  0.61242165    -0.40200
O2836       O  0.62358617  0.07168938  0.60572441    -0.40200
C2837       C  0.78531081  0.36471774  0.59015212    -0.12500
C2838       C  0.79141865  0.39514436  0.57476487     0.04500
C2839       C  0.80435327  0.39391428  0.54336733    -0.07800
C2840       C  0.81358713  0.36410693  0.52980415    -0.08500
C2841       C  0.80928399  0.33417809  0.54555368    -0.03100
C2842       C  0.79356448  0.33462103  0.57558676     0.03700
N2843       N  0.78699998  0.30475953  0.59191708     0.66200
H2844       H  0.77408437  0.36420364  0.61373017     0.15100
H2845       H  0.82537272  0.36463453  0.50681522     0.14800
N2846       N  0.80890097  0.42258754  0.52471231     0.73900
O2847       O  0.80948092  0.29239927  0.60804384    -0.39500
O2848       O  0.76330636  0.28674284  0.58245721    -0.39500
O2849       O  0.83687812  0.43613757  0.52361850    -0.40200
O2850       O  0.78879621  0.42781969  0.50246738    -0.40200
C2851       C  0.80447869  0.14860990  0.57313831    -0.12500
C2852       C  0.82929442  0.14597976  0.55119772     0.04500
C2853       C  0.83749741  0.11407583  0.54056554    -0.07800
C2854       C  0.81929936  0.08637898  0.55123456    -0.08500
C2855       C  0.79419726  0.08923750  0.57384223    -0.03100
C2856       C  0.78734436  0.12150627  0.58477067     0.03700
N2857       N  0.76330698  0.12876332  0.60809485     0.66200
H2858       H  0.79860656  0.17252212  0.58237322     0.15100
H2859       H  0.82642011  0.06239493  0.54342217     0.14800
N2860       N  0.86502977  0.10870510  0.52048452     0.73900
O2861       O  0.77133831  0.12711943  0.63738856    -0.39500
O2862       O  0.74371924  0.15040245  0.60037256    -0.39500
O2863       O  0.89130191  0.10103454  0.53383614    -0.40200
O2864       O  0.86014075  0.09996264  0.49160780    -0.40200
C2865       C  0.85366577  0.42205789  0.93945408    -0.12500
C2866       C  0.82290430  0.41704484  0.92483417     0.04500
C2867       C  0.81032912  0.38486646  0.92279687    -0.07800
C2868       C  0.82605654  0.35965882  0.93737028    -0.08500
C2869       C  0.85692779  0.36396786  0.95088027    -0.03100
C2870       C  0.87121506  0.39584673  0.95148627     0.03700
N2871       N  0.90391272  0.40214416  0.96200689     0.66200
H2872       H  0.86492181  0.44626253  0.94037032     0.15100
H2873       H  0.81413059  0.33574436  0.93622969     0.14800
N2874       N  0.78174042  0.37597771  0.90560382     0.73900
O2875       O  0.92606202  0.40336217  0.94098403    -0.39500
O2876       O  0.90861789  0.41713914  0.98837481    -0.39500
O2877       O  0.78543283  0.36458084  0.87755820    -0.40200
O2878       O  0.75893514  0.36430232  0.92237311    -0.40200
C2879       C  0.78204438  0.10324439  0.96804318    -0.12500
C2880       C  0.80135930  0.08569040  0.94639433     0.04500
C2881       C  0.82971358  0.10099219  0.93459683    -0.07800
C2882       C  0.83542133  0.13367388  0.93939824    -0.08500
C2883       C  0.81736435  0.15205118  0.96089934    -0.03100
C2884       C  0.78985434  0.13647685  0.97623733     0.03700
N2885       N  0.76909785  0.15310711  0.99865350     0.66200
H2886       H  0.75980284  0.09165825  0.97685993     0.15100
H2887       H  0.85605993  0.14458240  0.92673606     0.14800
N2888       N  0.85217526  0.08458660  0.91472237     0.73900
O2889       O  0.74332656  0.13919644  0.00890947    -0.39500
O2890       O  0.77611129  0.18151774  0.00864526    -0.39500
O2891       O  0.85697643  0.09589664  0.88696681    -0.40200
O2892       O  0.87500355  0.07010741  0.92836890    -0.40200
C2893       C  0.94786450  0.27963260  0.88659222    -0.12500
C2894       C  0.91914297  0.29315577  0.89852563     0.04500
C2895       C  0.90103293  0.31225269  0.87666981    -0.07800
C2896       C  0.91287330  0.31933627  0.84603346    -0.08500
C2897       C  0.94234784  0.30811773  0.83510190     0.02300
C2898       C  0.95889313  0.28592900  0.85464741     0.03700
N2899       N  0.98589677  0.26876528  0.84216879     0.66200
H2900       H  0.96098221  0.26313109  0.90165954     0.15100
H2901       H  0.89961674  0.33607402  0.83121750     0.14800
N2902       N  0.87167665  0.32763768  0.88520608     0.73900
O2903       O  0.51205188  0.27016400  0.87069650    -0.39500
O2904       O  0.98559473  0.25897492  0.81322870    -0.39500
O2905       O  0.87241171  0.35835817  0.88505534    -0.40200
O2906       O  0.84508778  0.31289384  0.87825636    -0.40200
C2907       C  0.91386793  0.33023919  0.60552175    -0.12500
C2908       C  0.93149976  0.30909378  0.58633108     0.04500
C2909       C  0.95991173  0.29557184  0.59964314    -0.07800
C2910       C  0.96827259  0.30180537  0.63252246    -0.08500
C2911       C  0.94967283  0.32258931  0.65168794    -0.03100
C2912       C  0.92228536  0.33632045  0.63747273     0.03700
N2913       N  0.90091661  0.35478069  0.65640138     0.66200
H2914       H  0.89151773  0.34018825  0.59638969     0.15100
H2915       H  0.99011424  0.29186332  0.64247963     0.14800
N2916       N  0.98140739  0.27724904  0.57999977     0.73900
O2917       O  0.90069671  0.38519514  0.65302537    -0.39500
O2918       O  0.88533336  0.34110270  0.67892276    -0.39500
O2919       O  0.99190751  0.28922412  0.55402067    -0.40200
O2920       O  0.99597714  0.25376827  0.59204521    -0.40200
C2921       C  0.90025084  0.21820766  0.86594720    -0.12500
C2922       C  0.91138683  0.20393310  0.89498588     0.04500
C2923       C  0.92791715  0.17449362  0.89165965    -0.07800
C2924       C  0.93427934  0.16135923  0.86087422    -0.08500
C2925       C  0.92712301  0.17778139  0.83215695    -0.03100
C2926       C  0.90840848  0.20569351  0.83492293     0.03700
N2927       N  0.89675472  0.22072776  0.80646360     0.66200
H2928       H  0.88533749  0.23940718  0.86728939     0.15100
H2929       H  0.94651896  0.13845745  0.85950285     0.14800
N2930       N  0.93683125  0.15624645  0.91919654     0.73900
O2931       O  0.87175267  0.20840495  0.79268192    -0.39500
O2932       O  0.91610271  0.23862333  0.79041123    -0.39500
O2933       O  0.96609986  0.15746703  0.92859696    -0.40200
O2934       O  0.91874685  0.13239324  0.92735785    -0.40200
C2935       C  0.95906962  0.18599436  0.59400123    -0.12500
C2936       C  0.93807601  0.21181852  0.59540537     0.04500
C2937       C  0.92817995  0.22271202  0.62692801    -0.07800
C2938       C  0.94185402  0.20976093  0.65495945    -0.08500
C2939       C  0.95973199  0.18161907  0.65347657    -0.03100
C2940       C  0.96673636  0.16870341  0.62191787     0.03700
N2941       N  0.97507690  0.13549497  0.61677823     0.66200
H2942       H  0.96448183  0.17534534  0.57066853     0.15100
H2943       H  0.93414010  0.21873115  0.67829855     0.14800
N2944       N  0.90018614  0.24207455  0.63177530     0.73900
O2945       O  0.95231138  0.11413512  0.61780675    -0.39500
O2946       O  0.99947606  0.12953834  0.59960273    -0.39500
O2947       O  0.87268485  0.22748666  0.63300910    -0.40200
O2948       O  0.90372549  0.26836232  0.64740639    -0.40200
C2949       C  0.69325625  0.34926284  0.92310141    -0.12500
C2950       C  0.67979351  0.34815941  0.95350524     0.04500
C2951       C  0.67410880  0.37853873  0.96966067    -0.07800
C2952       C  0.68763938  0.40783914  0.95751408    -0.08500
C2953       C  0.69957453  0.40890320  0.92616170    -0.03100
C2954       C  0.69829958  0.37895332  0.90769630     0.03700
N2955       N  0.70046492  0.37752756  0.87319668     0.66200
H2956       H  0.69636557  0.32690331  0.90956353     0.15100
H2957       H  0.68500261  0.43035694  0.97094175     0.14800
N2958       N  0.65025074  0.38127504  0.99457200     0.73900
O2959       O  0.72490127  0.36500483  0.86034505    -0.39500
O2960       O  0.67428720  0.37702465  0.85724222    -0.39500
O2961       O  0.65768317  0.39566441  0.52040280    -0.40200
O2962       O  0.62067149  0.38176048  0.98625137    -0.40200
C2963       C  0.65831650  0.13294338  0.95048804    -0.12500
C2964       C  0.67833747  0.16103936  0.95415944     0.04500
C2965       C  0.71021238  0.16042300  0.94233304    -0.07800
C2966       C  0.72254612  0.13056640  0.93158154    -0.08500
C2967       C  0.70359591  0.10109733  0.93281782    -0.03100
C2968       C  0.67015810  0.10331421  0.93969382     0.03700
N2969       N  0.64706098  0.07716199  0.93264783     0.66200
H2970       H  0.63250427  0.13402932  0.95537925     0.15100
H2971       H  0.74650941  0.13062805  0.92073368     0.14800
N2972       N  0.72786051  0.19029652  0.93621687     0.73900
O2973       O  0.65339426  0.04829744  0.93978286    -0.39500
O2974       O  0.61813692  0.08362827  0.92511339    -0.39500
O2975       O  0.74275269  0.20489839  0.95899671    -0.40200
O2976       O  0.72060498  0.20623399  0.91155243    -0.40200
C2977       C  0.72100734  0.38536687  0.54459271    -0.12500
C2978       C  0.70661144  0.39384015  0.57410026     0.04500
C2979       C  0.69098771  0.36856027  0.59181833    -0.07800
C2980       C  0.69055886  0.33666980  0.58095396    -0.08500
C2981       C  0.70136050  0.32864012  0.55044309    -0.03100
C2982       C  0.71874346  0.35275021  0.53261243     0.03700
N2983       N  0.73634728  0.34387676  0.50418425     0.66200
H2984       H  0.73469893  0.40380975  0.53151702     0.15100
H2985       H  0.67749598  0.31850294  0.59514799     0.14800
N2986       N  0.67616128  0.37409784  0.62214766     0.73900
O2987       O  0.74683704  0.36554288  0.48519999    -0.39500
O2988       O  0.74639521  0.31532572  0.50102940    -0.39500
O2989       O  0.64549015  0.37531364  0.62342613    -0.40200
O2990       O  0.69127163  0.36414585  0.64630064    -0.40200
C2991       C  0.67864175  0.14356906  0.57585620    -0.12500
C2992       C  0.66879152  0.14228174  0.54359935     0.04500
C2993       C  0.66622538  0.11051043  0.52902861    -0.07800
C2994       C  0.68255608  0.08426898  0.54326066    -0.08500
C2995       C  0.69204806  0.08560800  0.57553042    -0.03100
C2996       C  0.68566384  0.11522981  0.59284385     0.03700
N2997       N  0.68192831  0.11671068  0.62735897     0.66200
H2998       H  0.67647691  0.16616968  0.58932901     0.15100
H2999       H  0.68363921  0.06106928  0.53074131     0.14800
N3000       N  0.64271934  0.10218667  0.50444947     0.73900
O3001       O  0.70513142  0.12759251  0.64468883    -0.39500
O3002       O  0.65353970  0.11862676  0.63863689    -0.39500
O3003       O  0.62739288  0.07594575  0.99537834    -0.40200
O3004       O  0.61478244  0.11400341  0.50577540    -0.40200
C3005       C  0.54593902  0.32110813  0.91223041    -0.12500
C3006       C  0.57244284  0.30079598  0.91257832     0.04500
C3007       C  0.58963299  0.29694554  0.88237824    -0.07800
C3008       C  0.57612266  0.30710345  0.85316901    -0.08500
C3009       C  0.54917136  0.32667310  0.85282668    -0.03100
C3010       C  0.53574724  0.33575159  0.88341204     0.03700
N3011       N  0.51254050  0.36072259  0.88624578     0.66200
H3012       H  0.53410017  0.32719645  0.93469648     0.15100
H3013       H  0.58915841  0.30297841  0.83085933     0.14800
N3014       N  0.62351282  0.28982835  0.88103487     0.73900
O3015       O  0.48277010  0.35279932  0.88839292    -0.39500
O3016       O  0.52198261  0.38800001  0.89753414    -0.39500
O3017       O  0.63259831  0.26782239  0.86202764    -0.40200
O3018       O  0.64351448  0.31288971  0.88730623    -0.40200
C3019       C  0.58217946  0.30393143  0.66315802    -0.12500
C3020       C  0.55705741  0.32582830  0.65921256     0.04500
C3021       C  0.55027635  0.33611984  0.62723301    -0.07800
C3022       C  0.56484597  0.32122003  0.60075463    -0.08500
C3023       C  0.58894891  0.29852872  0.60448812    -0.03100
C3024       C  0.59898463  0.29121341  0.63648800     0.03700
N3025       N  0.62648664  0.27176248  0.64280156     0.66200
H3026       H  0.58989414  0.29767444  0.68724139     0.15100
H3027       H  0.55851491  0.32918235  0.57678560     0.14800
N3028       N  0.53224705  0.36439257  0.62061492     0.73900
O3029       O  0.65323116  0.28609174  0.64998505    -0.39500
O3030       O  0.62163109  0.24287653  0.65199761    -0.39500
O3031       O  0.54834178  0.38937043  0.61200516    -0.40200
O3032       O  0.99622166  0.36159763  0.60600211    -0.40200
C3033       C  0.57242442  0.20958693  0.88603239    -0.12500
C3034       C  0.60614518  0.20674808  0.88483161     0.04500
C3035       C  0.62032404  0.19772974  0.85503260    -0.07800
C3036       C  0.60016247  0.19178890  0.82773693    -0.08500
C3037       C  0.56610737  0.19359162  0.82984796    -0.03100
C3038       C  0.55289715  0.20207375  0.85964255     0.03700
N3039       N  0.51939725  0.19717506  0.86517501     0.66200
H3040       H  0.56050851  0.21643134  0.90828510     0.15100
H3041       H  0.61092783  0.18313481  0.80560016     0.14800
N3042       N  0.65430597  0.19219590  0.85221629     0.73900
O3043       O  0.00471838  0.15754335  0.87562855    -0.39500
O3044       O  0.98968401  0.19931950  0.84830301    -0.39500
O3045       O  0.66354307  0.16324184  0.85322632    -0.40200
O3046       O  0.67191703  0.21303589  0.83775158    -0.40200
C3047       C  0.56351557  0.15452324  0.62826233    -0.12500
C3048       C  0.55212141  0.17553936  0.65205032     0.04500
C3049       C  0.54972125  0.20874725  0.64525240    -0.07800
C3050       C  0.55766159  0.21979174  0.61411113    -0.08500
C3051       C  0.56891207  0.19829031  0.59018390    -0.03100
C3052       C  0.57108937  0.16526131  0.59768738     0.03700
N3053       N  0.58266304  0.14201932  0.57513485     0.66200
H3054       H  0.56623225  0.12892317  0.63303820     0.15100
H3055       H  0.55657281  0.24523914  0.60914246     0.14800
N3056       N  0.54192728  0.23144635  0.67023212     0.73900
O3057       O  0.61077511  0.13174284  0.57967221    -0.39500
O3058       O  0.56213220  0.12355158  0.56070657    -0.39500
O3059       O  0.06082450  0.23489018  0.68795107    -0.40200
O3060       O  0.00983429  0.23278996  0.67384868    -0.40200
O3061       O  0.57216630  0.72036957  0.03676402    -0.80400
O3062       O  0.57361307  0.78726233  0.47650887    -0.80400
O3063       O  0.63034199  0.77764036  0.07629938    -0.80400
O3064       O  0.64723550  0.72977788  0.41838106    -0.80400
O3065       O  0.58481679  0.78576243  0.04969542    -0.80500
O3066       O  0.60658447  0.70387128  0.44578577    -0.80400
O3067       O  0.61092252  0.77060767  0.44325777    -0.80400
O3068       O  0.61455657  0.71445371  0.06891438    -0.80400
C3069       C  0.58409363  0.71312802  0.06403480     1.09300
C3070       C  0.58455115  0.78413987  0.44738667     1.09200
C3071       C  0.60118250  0.78678208  0.07609453     1.09300
C3072       C  0.62130388  0.71128620  0.41812455     1.09200
O3073       O  0.63161098  0.68511763  0.46999222    -0.80400
O3074       O  0.64814039  0.81378723  0.03344914    -0.80500
O3075       O  0.66832013  0.70131962  0.03246097    -0.80400
O3076       O  0.67380301  0.78566982  0.46166877    -0.80400
O3077       O  0.63340852  0.81710231  0.47569777    -0.80400
O3078       O  0.62138352  0.67636523  0.01813648    -0.80400
O3079       O  0.67770434  0.71413261  0.47421062    -0.80300
O3080       O  0.68413357  0.77373466  0.03385868    -0.80400
Co3081     Co  0.59712693  0.71278925  0.99578787     1.51500
Co3082     Co  0.60998839  0.79544514  0.51022308     1.51700
Co3083     Co  0.64917278  0.74247340  0.04901823     1.51600
Co3084     Co  0.64424751  0.74460647  0.46265494     1.51500
O3085       O  0.62656264  0.75220305  0.00580833    -1.42300
C3086       C  0.66320522  0.68692884  0.46802930     1.09200
C3087       C  0.67752233  0.80402857  0.03555131     1.09300
C3088       C  0.65025134  0.67513328  0.03006146     1.09300
C3089       C  0.66183726  0.81411310  0.46574338     1.09200
O3090       O  0.88724020  0.72078731  0.06995018    -0.80400
O3091       O  0.87307748  0.78464293  0.43804045    -0.80400
O3092       O  0.91890438  0.72037067  0.45956366    -0.80400
O3093       O  0.92296526  0.79304053  0.03440650    -0.80400
O3094       O  0.87239274  0.73044012  0.43314979    -0.80500
O3095       O  0.88173088  0.78329936  0.06810941    -0.80400
O3096       O  0.92037528  0.78358379  0.46220977    -0.80400
O3097       O  0.92896630  0.71837297  0.03600979    -0.80400
C3098       C  0.91728082  0.71822650  0.06513399     1.09300
C3099       C  0.90434000  0.78782091  0.43611797     1.09200
C3100       C  0.90176303  0.71989869  0.43320915     1.09300
C3101       C  0.91125207  0.79267493  0.06300458     1.09200
O3102       O  0.81903499  0.77666947  0.03607125    -0.80400
O3103       O  0.82037460  0.71395090  0.47727600    -0.80500
O3104       O  0.87413792  0.67662174  0.03370096    -0.80400
O3105       O  0.89267350  0.83934449  0.48446495    -0.80400
O3106       O  0.85300610  0.80678268  0.46258442    -0.80400
O3107       O  0.82928007  0.70467517  0.03873453    -0.80400
O3108       O  0.85775268  0.81285227  0.02569591    -0.80300
O3109       O  0.86362422  0.68391142  0.47169373    -0.80400
Co3110     Co  0.85425982  0.74636825  0.04949725     1.51500
Co3111     Co  0.84449777  0.75491855  0.46648515     1.51700
Co3112     Co  0.89732195  0.70260789  0.00048306     1.51600
Co3113     Co  0.88920302  0.79452419  0.49796923     1.51500
O3114       O  0.87473822  0.74638839  0.00478913    -1.42300
C3115       C  0.82872296  0.80642050  0.03412549     1.09200
C3116       C  0.83294112  0.68711907  0.47040322     1.09300
C3117       C  0.84399741  0.67735240  0.03919907     1.09300
C3118       C  0.86637365  0.83627003  0.46774641     1.09200
O3119       O  0.70672410  0.52705801  0.17654918    -0.80400
O3120       O  0.78460593  0.96776473  0.17973434    -0.80400
O3121       O  0.68032912  0.95603610  0.13578244    -0.80400
O3122       O  0.81274619  0.53253669  0.12694931    -0.80400
O3123       O  0.71282434  0.95941916  0.17837039    -0.80500
O3124       O  0.78384348  0.53457094  0.17162185    -0.80400
O3125       O  0.81833372  0.97194365  0.13841829    -0.80400
O3126       O  0.67476571  0.51664723  0.13432792    -0.80400
C3127       C  0.67795932  0.52590559  0.16332343     1.09300
C3128       C  0.81354079  0.96683765  0.16852137     1.09200
C3129       C  0.68469204  0.95340709  0.16598831     1.09300
C3130       C  0.81111911  0.53878589  0.15641659     1.09200
O3131       O  0.76930801  0.56475652  0.11221482    -0.80400
O3132       O  0.72222024  0.92315603  0.11992568    -0.80500
O3133       O  0.70655356  0.53002094  0.07579152    -0.80400
O3134       O  0.78268258  0.95650437  0.07757737    -0.80400
O3135       O  0.78401622  0.92804895  0.12184552    -0.80400
O3136       O  0.70847704  0.56142030  0.11916602    -0.80400
O3137       O  0.77681549  0.53012613  0.07139306    -0.80300
O3138       O  0.71569332  0.95316840  0.07639591    -0.80400
Co3139     Co  0.74282426  0.54152831  0.14525675     1.51500
Co3140     Co  0.75041387  0.94965376  0.14958744     1.51700
Co3141     Co  0.69932804  0.48971516  0.10393539     1.51600
Co3142     Co  0.79232435  0.49649227  0.10296224     1.51500
O3143       O  0.74590074  0.49454224  0.12475811    -1.42300
C3144       C  0.77643896  0.55960010  0.08286209     1.09200
C3145       C  0.71601156  0.92516397  0.09006379     1.09300
C3146       C  0.70139543  0.55775601  0.08979784     1.09300
C3147       C  0.78667722  0.92908813  0.09141152     1.09200
O3148       O  0.68180143  0.53280968  0.37094792    -0.80400
O3149       O  0.81907345  0.96904141  0.36780987    -0.80400
O3150       O  0.78791549  0.53557532  0.32686041    -0.80400
O3151       O  0.71299075  0.96678843  0.32527949    -0.80400
O3152       O  0.81923461  0.53381359  0.36993153    -0.80500
O3153       O  0.68115117  0.97170728  0.36799002    -0.80400
O3154       O  0.78651336  0.96614846  0.32531000    -0.80400
O3155       O  0.71328587  0.53581216  0.32789814    -0.80400
C3156       C  0.68505944  0.53792705  0.34116607     1.09300
C3157       C  0.81492852  0.96380023  0.33784216     1.09200
C3158       C  0.81647821  0.53729903  0.33978151     1.09300
C3159       C  0.68483313  0.96411278  0.33860335     1.09200
O3160       O  0.71449496  0.96393560  0.42645628    -0.80400
O3161       O  0.78393998  0.53791675  0.42915937    -0.80500
O3162       O  0.72151025  0.57160770  0.38698731    -0.80400
O3163       O  0.77929192  0.93073805  0.38458042    -0.80400
O3164       O  0.78208745  0.96392926  0.42654243    -0.80400
O3165       O  0.71728038  0.53898915  0.42914663    -0.80400
O3166       O  0.71782017  0.93239853  0.38311098    -0.80300
O3167       O  0.78221457  0.57081384  0.38725161    -0.80400
Co3168     Co  0.70414633  0.50192840  0.39904042     1.51500
Co3169     Co  0.79677022  0.50234349  0.39868571     1.51700
Co3170     Co  0.75121701  0.54849061  0.35688148     1.51600
Co3171     Co  0.74939275  0.95402234  0.35462813     1.51500
O3172       O  0.75036473  0.50212025  0.37750251    -1.42300
C3173       C  0.71098867  0.93575919  0.41248219     1.09200
C3174       C  0.78721232  0.56635117  0.41706688     1.09300
C3175       C  0.71575498  0.56755933  0.41677135     1.09300
C3176       C  0.78656633  0.93605961  0.41402292     1.09200
O3177       O  0.53534912  0.67366407  0.20929320    -0.80400
O3178       O  0.96045076  0.67686597  0.28685124    -0.80400
O3179       O  0.97151470  0.63470729  0.17978251    -0.80400
O3180       O  0.53272110  0.64311917  0.31583598    -0.80400
O3181       O  0.96602611  0.67759361  0.21236611    -0.80500
O3182       O  0.53890406  0.68143282  0.27896711    -0.80400
O3183       O  0.96533833  0.63427939  0.31760776    -0.80400
O3184       O  0.53257994  0.62848694  0.18098190    -0.80400
C3185       C  0.53800319  0.65898809  0.18248654     1.09300
C3186       C  0.95518234  0.66283055  0.31385513     1.09200
C3187       C  0.96670085  0.66477777  0.18356706     1.09300
C3188       C  0.54265696  0.67163012  0.30783372     1.09200
O3189       O  0.57331894  0.62399643  0.27948162    -0.80400
O3190       O  0.93055723  0.62044061  0.21592593    -0.80500
O3191       O  0.53122021  0.57101860  0.21972641    -0.80400
O3192       O  0.96701619  0.57447743  0.28283903    -0.80400
O3193       O  0.93005611  0.61241005  0.27687363    -0.80400
O3194       O  0.56865767  0.61130108  0.21956611    -0.80400
O3195       O  0.54154088  0.58071905  0.28521373    -0.80300
O3196       O  0.95915615  0.57620679  0.21472542    -0.80400
Co3197     Co  0.54892796  0.64738795  0.24645565     1.51500
Co3198     Co  0.95213963  0.64709035  0.24858444     1.51700
Co3199     Co  0.49858292  0.60232114  0.20419433     1.51600
Co3200     Co  0.00021276  0.60876333  0.29601080     1.51500
O3201       O  0.99920866  0.62796078  0.24948394    -1.42300
C3202       C  0.56991682  0.59459561  0.28663764     1.09200
C3203       C  0.93191368  0.59053800  0.21113834     1.09300
C3204       C  0.56085491  0.58101929  0.21635138     1.09300
C3205       C  0.93734737  0.58313705  0.28363180     1.09200
O3206       O  0.52801031  0.86851915  0.18837175    -0.80400
O3207       O  0.96606084  0.86140020  0.32089440    -0.80400
O3208       O  0.54162217  0.82775328  0.29798496    -0.80400
O3209       O  0.96432968  0.82161182  0.21461699    -0.80400
O3210       O  0.52595824  0.86907542  0.32761019    -0.80500
O3211       O  0.96685555  0.86517489  0.18412740    -0.80400
O3212       O  0.96379283  0.81966469  0.28649435    -0.80400
O3213       O  0.54295050  0.82795140  0.21945621    -0.80400
C3214       C  0.54166740  0.84146098  0.19169318     1.09300
C3215       C  0.96049316  0.83100088  0.31510103     1.09200
C3216       C  0.53852587  0.84153798  0.32571666     1.09300
C3217       C  0.96172005  0.83471191  0.18690958     1.09200
O3218       O  0.96173091  0.92537207  0.22072078    -0.80400
O3219       O  0.53025308  0.92698020  0.29288113    -0.80500
O3220       O  0.56532957  0.88385524  0.23504161    -0.80400
O3221       O  0.92844118  0.87903574  0.28341907    -0.80400
O3222       O  0.96111960  0.92260443  0.28587525    -0.80400
O3223       O  0.53483657  0.92624889  0.22402086    -0.80400
O3224       O  0.92936482  0.88163822  0.22245154    -0.80300
O3225       O  0.56451895  0.88694095  0.28356464    -0.80400
Co3226     Co  0.49644792  0.89780976  0.21014227     1.51500
Co3227     Co  0.49385074  0.89407108  0.30260473     1.51700
Co3228     Co  0.53492444  0.85555691  0.25874377     1.51600
Co3229     Co  0.95133780  0.85060769  0.25186639     1.51500
O3230       O  0.49239908  0.87511639  0.25549925    -1.42300
C3231       C  0.93285279  0.91230377  0.21904704     1.09200
C3232       C  0.55941136  0.91602186  0.29310828     1.09300
C3233       C  0.56255965  0.91229154  0.22374736     1.09300
C3234       C  0.93262690  0.90944495  0.28813803     1.09200
C3235       C  0.87263241  0.91507668  0.28667210    -0.12500
C3236       C  0.90329101  0.92784229  0.29655779     0.04500
C3237       C  0.90455192  0.95470475  0.31759710    -0.07800
C3238       C  0.87540038  0.96654936  0.33012122    -0.08500
C3239       C  0.84446261  0.95416189  0.31965146    -0.03100
C3240       C  0.84355677  0.92874005  0.29672696     0.03700
N3241       N  0.81348988  0.91436751  0.28548896     0.66200
H3242       H  0.87104144  0.89336396  0.27177292     0.15100
H3243       H  0.87703988  0.98457910  0.34920476     0.14800
N3244       N  0.93522748  0.96813175  0.32854001     0.73900
O3245       O  0.80587988  0.88565759  0.29367999    -0.39500
O3246       O  0.80060358  0.92576730  0.26060189    -0.39500
O3247       O  0.95060923  0.98797478  0.31074188    -0.40200
O3248       O  0.94854731  0.45405179  0.35000432    -0.40200
C3249       C  0.61115318  0.94990165  0.28408302    -0.12500
C3250       C  0.58894624  0.93435557  0.30548455     0.04500
C3251       C  0.60089858  0.92622207  0.33607440    -0.07800
C3252       C  0.63320187  0.93330364  0.34441445    -0.08500
C3253       C  0.65495010  0.94949528  0.32356189    -0.03100
C3254       C  0.64418177  0.95712487  0.29276648     0.03700
N3255       N  0.66650632  0.97277725  0.27098833     0.66200
H3256       H  0.60262643  0.95708308  0.26094362     0.15100
H3257       H  0.64061786  0.92810498  0.36886721     0.14800
N3258       N  0.58007360  0.91373665  0.36068888     0.73900
O3259       O  0.68884375  0.95626827  0.25912300    -0.39500
O3260       O  0.67222061  0.00285948  0.27422229    -0.39500
O3261       O  0.58751350  0.88732516  0.37351443    -0.40200
O3262       O  0.56473362  0.93400050  0.37736292    -0.40200
C3263       C  0.87592036  0.55063323  0.34244691    -0.12500
C3264       C  0.84823738  0.54418676  0.32278959     0.04500
C3265       C  0.85361203  0.54167505  0.28944675    -0.07800
C3266       C  0.88458450  0.55044809  0.27682258    -0.08500
C3267       C  0.91064334  0.56154438  0.29661022    -0.03100
C3268       C  0.90651835  0.55881922  0.32995100     0.03700
N3269       N  0.93295474  0.56416345  0.35191903     0.66200
H3270       H  0.87441024  0.54837446  0.36828459     0.15100
H3271       H  0.88811749  0.54865072  0.25136108     0.14800
N3272       N  0.82910968  0.52810438  0.26844902     0.73900
O3273       O  0.93269033  0.58906120  0.36975667    -0.39500
O3274       O  0.94762645  0.53973213  0.36189849    -0.39500
O3275       O  0.80927492  0.54654517  0.25517901    -0.40200
O3276       O  0.83213084  0.49960566  0.25756386    -0.40200
C3277       C  0.65875446  0.57167569  0.29964707    -0.12500
C3278       C  0.65537749  0.54926446  0.32448797     0.04500
C3279       C  0.62332548  0.54185419  0.33631058    -0.07800
C3280       C  0.59611709  0.55600137  0.32267997    -0.08500
C3281       C  0.59950318  0.57846261  0.29809066    -0.03100
C3282       C  0.63155678  0.58706077  0.28706314     0.03700
N3283       N  0.63753845  0.61218646  0.26410569     0.66200
H3284       H  0.68287748  0.57875712  0.29112106     0.15100
H3285       H  0.57209947  0.54995078  0.33216108     0.14800
N3286       N  0.61729517  0.52065349  0.36273516     0.73900
O3287       O  0.64426567  0.60415375  0.23553620    -0.39500
O3288       O  0.64765493  0.63969677  0.27440371    -0.39500
O3289       O  0.61426831  0.53336036  0.39027450    -0.40200
O3290       O  0.60222812  0.49403460  0.35708391    -0.40200
C3291       C  0.87234349  0.91081488  0.20994226    -0.12500
C3292       C  0.90158903  0.92991690  0.21217806     0.04500
C3293       C  0.89893123  0.96342760  0.20639391    -0.07800
C3294       C  0.86862896  0.97539690  0.19654325    -0.08500
C3295       C  0.84152197  0.95512825  0.18846263    -0.03100
C3296       C  0.84395643  0.92198753  0.19563479     0.03700
N3297       N  0.81998635  0.89836090  0.18472210     0.66200
H3298       H  0.87202562  0.88542115  0.21650363     0.15100
H3299       H  0.86632165  0.00241543  0.19501508     0.14800
N3300       N  0.92637637  0.98531424  0.21008593     0.73900
O3301       O  0.82391887  0.88528746  0.15741842    -0.39500
O3302       O  0.80293039  0.88323854  0.20526677    -0.39500
O3303       O  0.94239665  0.99377045  0.18550430    -0.40200
O3304       O  0.92958350  0.00183907  0.23573178    -0.40200
C3305       C  0.62622994  0.95973937  0.17526254    -0.12500
C3306       C  0.65514319  0.94465222  0.18479473     0.04500
C3307       C  0.65262760  0.91871672  0.20688426    -0.07800
C3308       C  0.62229243  0.91072454  0.21985607    -0.08500
C3309       C  0.59345553  0.92617988  0.21066145    -0.03100
C3310       C  0.59565223  0.95069933  0.18759221     0.03700
N3311       N  0.56731124  0.96452609  0.17403363     0.66200
H3312       H  0.62697927  0.97776477  0.15649373     0.15100
H3313       H  0.62152029  0.89096776  0.23695604     0.14800
N3314       N  0.67824896  0.89665409  0.21317207     0.73900
O3315       O  0.55890201  0.99206968  0.18393969    -0.39500
O3316       O  0.55773026  0.95484494  0.14657177    -0.39500
O3317       O  0.69274816  0.89872316  0.23995229    -0.40200
O3318       O  0.67484747  0.86850262  0.20112353    -0.40200
C3319       C  0.90202010  0.55548371  0.17183407    -0.12500
C3320       C  0.90106636  0.57588390  0.19857254     0.04500
C3321       C  0.87011502  0.58790307  0.20831813    -0.07800
C3322       C  0.84128574  0.57420572  0.19555627    -0.08500
C3323       C  0.84214726  0.55198912  0.17030292    -0.03100
C3324       C  0.87324490  0.54517668  0.15625695     0.03700
N3325       N  0.87657550  0.52736251  0.12669560     0.66200
H3326       H  0.92531504  0.54933513  0.16154419     0.15100
H3327       H  0.81805477  0.58276858  0.20394746     0.14800
N3328       N  0.86716048  0.61536832  0.22950490     0.73900
O3329       O  0.87907335  0.04506837  0.10310941    -0.39500
O3330       O  0.88495429  0.00013906  0.12899767    -0.39500
O3331       O  0.86513904  0.64310439  0.21705766    -0.40200
O3332       O  0.85512930  0.61103814  0.25710944    -0.40200
C3333       C  0.63771394  0.53201373  0.20957278    -0.12500
C3334       C  0.64674767  0.53826459  0.17764464     0.04500
C3335       C  0.62223332  0.55161990  0.15732537    -0.07800
C3336       C  0.59447305  0.56499709  0.17072187    -0.08500
C3337       C  0.58632606  0.56002432  0.20271181    -0.03100
C3338       C  0.60635704  0.54012477  0.22121723     0.03700
N3339       N  0.59345235  0.52446470  0.24916138     0.66200
H3340       H  0.65350858  0.51759182  0.22382254     0.15100
H3341       H  0.57793148  0.57784717  0.15536514     0.14800
N3342       N  0.62229342  0.54813859  0.12294445     0.73900
O3343       O  0.61252826  0.51517208  0.27059541    -0.39500
O3344       O  0.56433484  0.51361708  0.24919932    -0.39500
O3345       O  0.61075950  0.52184242  0.11099603    -0.40200
O3346       O  0.62125764  0.57327478  0.10598163    -0.40200
C3347       C  0.78731025  0.86707798  0.09001146    -0.12500
C3348       C  0.79340504  0.89716125  0.07399920     0.04500
C3349       C  0.80612345  0.89522352  0.04250756    -0.07800
C3350       C  0.81436998  0.86493230  0.02913317    -0.08500
C3351       C  0.80991392  0.83534295  0.04551309    -0.03100
C3352       C  0.79507899  0.83663964  0.07594671     0.03700
N3353       N  0.78915827  0.80727281  0.09330782     0.66200
H3354       H  0.77649987  0.86708370  0.11378072     0.15100
H3355       H  0.82562154  0.86477391  0.00583656     0.14800
N3356       N  0.81202699  0.92364066  0.02377105     0.73900
O3357       O  0.81222526  0.79538275  0.10898877    -0.39500
O3358       O  0.76512298  0.78903102  0.08522366    -0.39500
O3359       O  0.84063932  0.93573285  0.02262936    -0.40200
O3360       O  0.79246708  0.92944601  0.00121172    -0.40200
C3361       C  0.80035316  0.64847435  0.06705351    -0.12500
C3362       C  0.82671746  0.64613210  0.04708807     0.04500
C3363       C  0.83582284  0.61446993  0.03670770    -0.07800
C3364       C  0.81679517  0.58663052  0.04542481    -0.08500
C3365       C  0.79001079  0.58920596  0.06606619    -0.03100
C3366       C  0.78241049  0.62125055  0.07686389     0.03700
N3367       N  0.75740602  0.62811025  0.09912879     0.66200
H3368       H  0.79388776  0.67220282  0.07634345     0.15100
H3369       H  0.82472275  0.56275342  0.03816850     0.14800
N3370       N  0.86522923  0.60946893  0.01935048     0.73900
O3371       O  0.76475764  0.62703186  0.12862697    -0.39500
O3372       O  0.73809978  0.64964199  0.09052138    -0.39500
O3373       O  0.89028176  0.60230797  0.03511095    -0.40200
O3374       O  0.86323735  0.60071655  0.99019454    -0.40200
C3375       C  0.83568567  0.92096471  0.44552578    -0.12500
C3376       C  0.80594774  0.91150949  0.43060128     0.04500
C3377       C  0.79887177  0.87802452  0.42654961    -0.07800
C3378       C  0.81860841  0.85546228  0.44016395    -0.08500
C3379       C  0.84849936  0.86406277  0.45439712    -0.03100
C3380       C  0.85770635  0.89753689  0.45610685     0.03700
N3381       N  0.89012964  0.90810782  0.46429092     0.66200
H3382       H  0.84307005  0.94651154  0.44657423     0.15100
H3383       H  0.81076717  0.83018780  0.43720804     0.14800
N3384       N  0.77318377  0.86516937  0.40684528     0.73900
O3385       O  0.91012152  0.91291907  0.44165058    -0.39500
O3386       O  0.89518182  0.92257177  0.49087076    -0.39500
O3387       O  0.77949270  0.86103721  0.37737758    -0.40200
O3388       O  0.75422055  0.84464678  0.41994424    -0.40200
C3389       C  0.78237265  0.60854907  0.46118943    -0.12500
C3390       C  0.79918792  0.59560028  0.43474777     0.04500
C3391       C  0.82297945  0.61533514  0.41936190    -0.07800
C3392       C  0.82881680  0.64698867  0.42915050    -0.08500
C3393       C  0.81398806  0.65964092  0.45633362    -0.03100
C3394       C  0.78930477  0.64088252  0.47226983     0.03700
N3395       N  0.77186131  0.65333668  0.49960364     0.66200
H3396       H  0.76326832  0.59391906  0.47241404     0.15100
H3397       H  0.84796198  0.66092937  0.41696229     0.14800
N3398       N  0.84399496  0.60288594  0.39530651     0.73900
O3399       O  0.75692674  0.63397334  0.51820367    -0.39500
O3400       O  0.76941220  0.68351514  0.50431509    -0.39500
O3401       O  0.84053223  0.61241089  0.36674231    -0.40200
O3402       O  0.87182878  0.59452079  0.40436783    -0.40200
C3403       C  0.94837848  0.78450339  0.39372654    -0.12500
C3404       C  0.91868046  0.79701651  0.40395314     0.04500
C3405       C  0.90091455  0.81515091  0.38105499    -0.07800
C3406       C  0.91449155  0.82319491  0.35127634    -0.08500
C3407       C  0.94447846  0.81195501  0.34151228     0.02300
C3408       C  0.96042290  0.79015589  0.36210369     0.03700
N3409       N  0.98775275  0.77251568  0.35116073     0.66200
H3410       H  0.96119521  0.76861926  0.40970398     0.15100
H3411       H  0.90147862  0.83936239  0.33565247     0.14800
N3412       N  0.86910465  0.82667436  0.38706200     0.73900
O3413       O  0.51664244  0.76683698  0.37306126    -0.39500
O3414       O  0.98907586  0.76276500  0.32227036    -0.39500
O3415       O  0.86584173  0.85708738  0.38756927    -0.40200
O3416       O  0.84509469  0.80885554  0.37801264    -0.40200
C3417       C  0.91080736  0.82504829  0.11238107    -0.12500
C3418       C  0.92906100  0.80555730  0.09201625     0.04500
C3419       C  0.95805090  0.79263101  0.10448596    -0.07800
C3420       C  0.96701127  0.79847580  0.13727352    -0.08500
C3421       C  0.94806572  0.81782574  0.15753924    -0.03100
C3422       C  0.91960073  0.83038851  0.14441318     0.03700
N3423       N  0.89902939  0.84930692  0.16370041     0.66200
H3424       H  0.88812654  0.83480081  0.10387312     0.15100
H3425       H  0.98996852  0.79009491  0.14603515     0.14800
N3426       N  0.97953683  0.77528101  0.08408652     0.73900
O3427       O  0.89774019  0.87929226  0.15820803    -0.39500
O3428       O  0.88623658  0.83719544  0.18864255    -0.39500
O3429       O  0.99087651  0.78871856  0.05916503    -0.40200
O3430       O  0.99316065  0.75066130  0.09481139    -0.40200
C3431       C  0.90663411  0.71897892  0.37135323    -0.12500
C3432       C  0.91479842  0.70600045  0.40193940     0.04500
C3433       C  0.93212170  0.67698229  0.40171261    -0.07800
C3434       C  0.94130504  0.66262011  0.37255671    -0.08500
C3435       C  0.93710055  0.67725681  0.34240629    -0.03100
C3436       C  0.91821067  0.70524951  0.34189833     0.03700
N3437       N  0.90823849  0.71792980  0.31169981     0.66200
H3438       H  0.89139182  0.73993271  0.37027598     0.15100
H3439       H  0.95502827  0.64094851  0.37415979     0.14800
N3440       N  0.94037932  0.66084484  0.43077742     0.73900
O3441       O  0.88632168  0.70253937  0.29584288    -0.39500
O3442       O  0.92691017  0.73784340  0.29724362    -0.39500
O3443       O  0.96948961  0.66316373  0.44063935    -0.40200
O3444       O  0.92296575  0.63658230  0.43920684    -0.40200
C3445       C  0.95903008  0.68707106  0.09375888    -0.12500
C3446       C  0.93534207  0.71041321  0.09524358     0.04500
C3447       C  0.92393910  0.72000544  0.12661382    -0.07800
C3448       C  0.93781108  0.70762290  0.15457657    -0.08500
C3449       C  0.95951762  0.68248133  0.15307845    -0.03100
C3450       C  0.96959323  0.67154492  0.12171140     0.03700
N3451       N  0.98700615  0.64234402  0.11670713     0.66200
H3452       H  0.96646461  0.67786871  0.07040485     0.15100
H3453       H  0.92844703  0.71510781  0.17782424     0.14800
N3454       N  0.89539064  0.73861607  0.13133060     0.73900
O3455       O  0.97076895  0.61574741  0.11599871    -0.39500
O3456       O  0.01290269  0.64408856  0.10048005    -0.39500
O3457       O  0.86805285  0.72365154  0.13049618    -0.40200
O3458       O  0.89787580  0.76385858  0.14874119    -0.40200
C3459       C  0.68962596  0.84607397  0.42467236    -0.12500
C3460       C  0.67753898  0.84525952  0.45557650     0.04500
C3461       C  0.67258734  0.87581408  0.47171962    -0.07800
C3462       C  0.68629656  0.90477113  0.45901007    -0.08500
C3463       C  0.69780234  0.90523728  0.42744175    -0.03100
C3464       C  0.69523504  0.87546193  0.40912176     0.03700
N3465       N  0.69446240  0.87422131  0.37456523     0.66200
H3466       H  0.69259486  0.82367455  0.41130191     0.15100
H3467       H  0.68455346  0.92743472  0.47239089     0.14800
N3468       N  0.64973614  0.87902442  0.49751633     0.73900
O3469       O  0.71796530  0.86219173  0.35963550    -0.39500
O3470       O  0.66696548  0.87332603  0.36088612    -0.39500
O3471       O  0.65465592  0.89071221  0.02574500    -0.40200
O3472       O  0.61991038  0.88006534  0.49024823    -0.40200
C3473       C  0.66472276  0.62692560  0.46380258    -0.12500
C3474       C  0.68025236  0.65703847  0.45784573     0.04500
C3475       C  0.70841642  0.65756186  0.43880910    -0.07800
C3476       C  0.72025984  0.62802770  0.42656985    -0.08500
C3477       C  0.70563498  0.59737594  0.43461757    -0.03100
C3478       C  0.67724846  0.59735164  0.45336852     0.03700
N3479       N  0.65828271  0.56814616  0.45826765     0.66200
H3480       H  0.64149947  0.62675828  0.47548101     0.15100
H3481       H  0.74070236  0.62908866  0.41011874     0.14800
N3482       N  0.72274036  0.68789551  0.42870086     0.73900
O3483       O  0.66434520  0.55083333  0.48229883    -0.39500
O3484       O  0.63073986  0.56503561  0.44483962    -0.39500
O3485       O  0.74144905  0.70375979  0.44770402    -0.40200
O3486       O  0.71015621  0.70243732  0.40539001    -0.40200
C3487       C  0.72170428  0.88455077  0.04396369    -0.12500
C3488       C  0.70863172  0.89306128  0.07402451     0.04500
C3489       C  0.69361598  0.86779910  0.09233186    -0.07800
C3490       C  0.69146566  0.83613746  0.08092422    -0.08500
C3491       C  0.70058323  0.82832678  0.04987986    -0.03100
C3492       C  0.71830263  0.85206055  0.03187146     0.03700
N3493       N  0.73560105  0.84281276  0.00342434     0.66200
H3494       H  0.73544083  0.90278263  0.03061345     0.15100
H3495       H  0.67854054  0.81810226  0.09541656     0.14800
N3496       N  0.68122455  0.87299401  0.12375265     0.73900
O3497       O  0.74677464  0.86439385  0.98472427    -0.39500
O3498       O  0.74545550  0.81416662  0.00050329    -0.39500
O3499       O  0.65077615  0.87480696  0.12726477    -0.40200
O3500       O  0.69793900  0.86221901  0.14649637    -0.40200
C3501       C  0.67195190  0.64463576  0.07571520    -0.12500
C3502       C  0.66213516  0.64360941  0.04349012     0.04500
C3503       C  0.65932699  0.61199888  0.02871499    -0.07800
C3504       C  0.67608730  0.58577634  0.04238570    -0.08500
C3505       C  0.68651207  0.58701107  0.07440088    -0.03100
C3506       C  0.68007164  0.61634619  0.09221564     0.03700
N3507       N  0.67921444  0.61815069  0.12687950     0.66200
H3508       H  0.67000743  0.66716132  0.08936265     0.15100
H3509       H  0.67704050  0.56270193  0.02961799     0.14800
N3510       N  0.63507956  0.60378758  0.00478892     0.73900
O3511       O  0.70300761  0.63127605  0.14182994    -0.39500
O3512       O  0.65173790  0.61915187  0.14032034    -0.39500
O3513       O  0.60882946  0.59083976  0.50378441    -0.40200
O3514       O  0.60738856  0.61605936  0.00667910    -0.40200
C3515       C  0.54625375  0.82024910  0.41635429    -0.12500
C3516       C  0.57200350  0.79890693  0.41628089     0.04500
C3517       C  0.58868036  0.79478701  0.38571147    -0.07800
C3518       C  0.57621131  0.80719766  0.35699118    -0.08500
C3519       C  0.54999028  0.82751951  0.35706855    -0.03100
C3520       C  0.53639060  0.83578282  0.38780025     0.03700
N3521       N  0.51346965  0.86095486  0.39109994     0.66200
H3522       H  0.53461177  0.82622972  0.43895339     0.15100
H3523       H  0.58898004  0.80302705  0.33453359     0.14800
N3524       N  0.62103447  0.78318470  0.38315143     0.73900
O3525       O  0.48363265  0.85325772  0.39332737    -0.39500
O3526       O  0.52329026  0.88806566  0.40255363    -0.39500
O3527       O  0.62659174  0.76147301  0.36238936    -0.40200
O3528       O  0.64394245  0.80316088  0.38981701    -0.40200
C3529       C  0.58140979  0.80443501  0.16520684    -0.12500
C3530       C  0.55779220  0.82801357  0.16222817     0.04500
C3531       C  0.55180459  0.84024796  0.13074169    -0.07800
C3532       C  0.56538006  0.82554950  0.10361044    -0.08500
C3533       C  0.58753739  0.80080240  0.10639885    -0.03100
C3534       C  0.59722388  0.79173174  0.13797840     0.03700
N3535       N  0.62364296  0.77063664  0.14330850     0.66200
H3536       H  0.58864810  0.79664697  0.18896125     0.15100
H3537       H  0.55964682  0.83486264  0.07999126     0.14800
N3538       N  0.53419610  0.86912329  0.12540037     0.73900
O3539       O  0.65134014  0.78337875  0.14967726    -0.39500
O3540       O  0.61738724  0.74199786  0.15255393    -0.39500
O3541       O  0.55035853  0.89487211  0.11909895    -0.40200
O3542       O  0.99602638  0.85450705  0.10596663    -0.40200
C3543       C  0.57037047  0.70614285  0.38811755    -0.12500
C3544       C  0.60389307  0.70179964  0.38761899     0.04500
C3545       C  0.61790906  0.69105077  0.35828527    -0.07800
C3546       C  0.59796425  0.68565316  0.33065980    -0.08500
C3547       C  0.56403765  0.68929022  0.33190628    -0.03100
C3548       C  0.55088168  0.69887777  0.36144819     0.03700
N3549       N  0.51737171  0.69435980  0.36690415     0.66200
H3550       H  0.55854794  0.71385604  0.41013531     0.15100
H3551       H  0.60866404  0.67585062  0.30898590     0.14800
N3552       N  0.65126888  0.68267100  0.35645909     0.73900
O3553       O  0.00914654  0.65982678  0.38267112    -0.39500
O3554       O  0.99369658  0.70347218  0.35820545    -0.39500
O3555       O  0.65808510  0.65315821  0.35964175    -0.40200
O3556       O  0.67059992  0.70098404  0.34086106    -0.40200
C3557       C  0.55856662  0.65498188  0.12747829    -0.12500
C3558       C  0.54773754  0.67521570  0.15221319     0.04500
C3559       C  0.54504448  0.70865588  0.14623176    -0.07800
C3560       C  0.55296464  0.72079295  0.11537652    -0.08500
C3561       C  0.56401774  0.70000260  0.09067683    -0.03100
C3562       C  0.56574338  0.66665194  0.09709144     0.03700
N3563       N  0.57705210  0.64401429  0.07378350     0.66200
H3564       H  0.56140164  0.62922069  0.13139838     0.15100
H3565       H  0.55205604  0.74655761  0.11125522     0.14800
N3566       N  0.53675698  0.73054709  0.17170258     0.73900
O3567       O  0.60407467  0.63155095  0.07909978    -0.39500
O3568       O  0.55624680  0.62781244  0.05729956    -0.39500
O3569       O  0.04969782  0.74287301  0.19232454    -0.40200
O3570       O  0.00146594  0.73692030  0.17158934    -0.40200
O3571       O  0.57376007  0.71767349  0.53944814    -0.80400
O3572       O  0.57088374  0.78843893  0.97694474    -0.80400
O3573       O  0.63067002  0.77461161  0.57781888    -0.80400
O3574       O  0.64708880  0.73518768  0.91698060    -0.80400
O3575       O  0.58540885  0.78285521  0.55054424    -0.80500
O3576       O  0.60682281  0.70863720  0.94449090    -0.80400
O3577       O  0.60815680  0.77386147  0.94254312    -0.80400
O3578       O  0.61754731  0.71196145  0.56926305    -0.80400
C3579       C  0.58709980  0.71138262  0.56645128     1.09300
C3580       C  0.58082189  0.78549124  0.94752033     1.09200
C3581       C  0.60102279  0.78258146  0.57749754     1.09300
C3582       C  0.62132969  0.71649081  0.91683008     1.09200
O3583       O  0.63043156  0.68983942  0.96817302    -0.80400
O3584       O  0.64886762  0.81146609  0.53597963    -0.80500
O3585       O  0.66867233  0.69879840  0.53288626    -0.80400
O3586       O  0.67196985  0.78938344  0.96152666    -0.80400
O3587       O  0.63049612  0.81992102  0.97365077    -0.80400
O3588       O  0.62154688  0.67285840  0.52000004    -0.80400
O3589       O  0.67678868  0.71796623  0.97303281    -0.80300
O3590       O  0.68538193  0.77213107  0.53514432    -0.80400
Co3591     Co  0.59790336  0.70941082  0.49737602     1.51500
Co3592     Co  0.60833637  0.79799340  0.00901410     1.51700
Co3593     Co  0.65063906  0.74023435  0.54980603     1.51600
Co3594     Co  0.64283078  0.74834211  0.96162938     1.51500
O3595       O  0.62778419  0.74928922  0.50676785    -1.42300
C3596       C  0.66190558  0.69114878  0.96602236     1.09200
C3597       C  0.67839776  0.80226641  0.53787056     1.09300
C3598       C  0.65056900  0.67226331  0.53159230     1.09300
C3599       C  0.65948994  0.81753986  0.96514645     1.09200
O3600       O  0.88837722  0.72179825  0.57058520    -0.80400
O3601       O  0.87524162  0.78162831  0.93756200    -0.80400
O3602       O  0.91968888  0.71705349  0.95967634    -0.80400
O3603       O  0.92211999  0.79666324  0.53400936    -0.80400
O3604       O  0.87360024  0.72772918  0.93265101    -0.80500
O3605       O  0.88251863  0.78416822  0.56898957    -0.80400
O3606       O  0.92241380  0.77946585  0.96208768    -0.80400
O3607       O  0.92934674  0.72038655  0.53565494    -0.80400
C3608       C  0.91842021  0.71986433  0.56512290     1.09300
C3609       C  0.90662515  0.78404721  0.93584294     1.09200
C3610       C  0.90288051  0.71694706  0.93305887     1.09300
C3611       C  0.91157348  0.79467364  0.56298515     1.09200
O3612       O  0.81881232  0.77717595  0.53849159    -0.80400
O3613       O  0.82095453  0.71068724  0.97508934    -0.80500
O3614       O  0.87460062  0.67905263  0.53340994    -0.80400
O3615       O  0.89718687  0.83510078  0.98433423    -0.80400
O3616       O  0.85601627  0.80494076  0.96085872    -0.80400
O3617       O  0.82902325  0.70519633  0.54026686    -0.80400
O3618       O  0.85653842  0.81437345  0.52776143    -0.80300
O3619       O  0.86481506  0.68119074  0.97179986    -0.80400
Co3620     Co  0.85459133  0.74722880  0.55071860     1.51500
Co3621     Co  0.84548465  0.75261411  0.96544508     1.51700
Co3622     Co  0.89699799  0.70515576  0.50020326     1.51600
Co3623     Co  0.89100517  0.79129766  0.99739232     1.51500
O3624       O  0.87439852  0.74880306  0.50548307    -1.42300
C3625       C  0.82792977  0.80707856  0.53690514     1.09200
C3626       C  0.83408859  0.68350012  0.97029577     1.09300
C3627       C  0.84458310  0.67842364  0.53934521     1.09300
C3628       C  0.87136973  0.83360239  0.96690155     1.09200
O3629       O  0.70956695  0.52876876  0.67830151    -0.80400
O3630       O  0.78234117  0.96673946  0.68548767    -0.80400
O3631       O  0.67980206  0.95737598  0.63870625    -0.80400
O3632       O  0.81474387  0.52827555  0.63225753    -0.80400
O3633       O  0.71136665  0.96076064  0.68199779    -0.80500
O3634       O  0.78396514  0.53358913  0.67534916    -0.80400
O3635       O  0.81754007  0.96892114  0.64538708    -0.80400
O3636       O  0.67558781  0.52101368  0.63720178    -0.80400
C3637       C  0.68062761  0.52980830  0.66651347     1.09300
C3638       C  0.81147262  0.96460063  0.67538424     1.09200
C3639       C  0.68341519  0.95559633  0.66903974     1.09300
C3640       C  0.81189588  0.53594066  0.66129607     1.09200
O3641       O  0.77387793  0.56360072  0.61549631    -0.80400
O3642       O  0.72056068  0.92229767  0.62511457    -0.80500
O3643       O  0.71002291  0.52745569  0.57610634    -0.80400
O3644       O  0.78353930  0.95544244  0.58351860    -0.80400
O3645       O  0.78248563  0.92629596  0.62751859    -0.80400
O3646       O  0.71247434  0.56135976  0.61747796    -0.80400
O3647       O  0.78224481  0.52951036  0.57481787    -0.80300
O3648       O  0.71688666  0.95134811  0.58072915    -0.80400
Co3649     Co  0.74505211  0.54161781  0.64682547     1.51500
Co3650     Co  0.74895697  0.94891434  0.65459623     1.51700
Co3651     Co  0.69959408  0.49061943  0.60679070     1.51600
Co3652     Co  0.79354572  0.49418492  0.60646000     1.51500
O3653       O  0.74658492  0.49409738  0.62739418    -1.42300
C3654       C  0.78453995  0.55846550  0.58740053     1.09200
C3655       C  0.71608349  0.92349266  0.59495002     1.09300
C3656       C  0.70706633  0.55627020  0.58774465     1.09300
C3657       C  0.78627677  0.92777759  0.59718916     1.09200
O3658       O  0.68075531  0.53654363  0.86572933    -0.80400
O3659       O  0.81443281  0.97638461  0.86405545    -0.80400
O3660       O  0.78993313  0.53902746  0.82797452    -0.80400
O3661       O  0.71165355  0.96571157  0.83024833    -0.80400
O3662       O  0.81994905  0.52862092  0.87134030    -0.80500
O3663       O  0.67981517  0.97329814  0.87263026    -0.80400
O3664       O  0.78197882  0.96626424  0.82453507    -0.80400
O3665       O  0.71436948  0.54282702  0.82400725    -0.80400
C3666       C  0.68532794  0.54292883  0.83632049     1.09300
C3667       C  0.81053020  0.96656232  0.83557628     1.09200
C3668       C  0.81800309  0.53834178  0.84209603     1.09300
C3669       C  0.68350914  0.96422415  0.84365152     1.09200
O3670       O  0.71462373  0.96858208  0.93105859    -0.80400
O3671       O  0.77943170  0.53357248  0.92827870    -0.80500
O3672       O  0.72100954  0.57666786  0.88246206    -0.80400
O3673       O  0.78376574  0.93940989  0.89374469    -0.80400
O3674       O  0.81553117  0.97298457  0.92524031    -0.80400
O3675       O  0.71436445  0.54409927  0.92431318    -0.80400
O3676       O  0.72028720  0.93652024  0.88903746    -0.80300
O3677       O  0.78324012  0.56948510  0.88881595    -0.80400
Co3678     Co  0.70148546  0.50593755  0.89490295     1.51500
Co3679     Co  0.78736420  0.49972284  0.89450782     1.51700
Co3680     Co  0.75193638  0.55289873  0.85501386     1.51600
Co3681     Co  0.74965814  0.95727185  0.85947125     1.51500
O3682       O  0.74625031  0.50632894  0.87196065    -1.42300
C3683       C  0.71260213  0.94006625  0.91779877     1.09200
C3684       C  0.78630121  0.56235251  0.91847928     1.09300
C3685       C  0.71370008  0.57267065  0.91172129     1.09300
C3686       C  0.80610980  0.94418819  0.91619011     1.09200
O3687       O  0.53029263  0.68488413  0.71459206    -0.80400
O3688       O  0.96493127  0.67817549  0.78657247    -0.80400
O3689       O  0.97309771  0.63599325  0.67982186    -0.80400
O3690       O  0.53148477  0.64605728  0.81702004    -0.80400
O3691       O  0.96975492  0.67919203  0.71212979    -0.80500
O3692       O  0.53457253  0.68662364  0.78263202    -0.80400
O3693       O  0.96948443  0.63543540  0.81705948    -0.80400
O3694       O  0.52924221  0.64213096  0.68248894    -0.80400
C3695       C  0.53344194  0.67281349  0.68683052     1.09300
C3696       C  0.95932116  0.66391546  0.81337201     1.09200
C3697       C  0.96944101  0.66627629  0.68337932     1.09300
C3698       C  0.53997187  0.67525104  0.81039257     1.09200
O3699       O  0.57166867  0.63009345  0.77874138    -0.80400
O3700       O  0.93114944  0.62368267  0.71591072    -0.80500
O3701       O  0.53374545  0.58040225  0.71743690    -0.80400
O3702       O  0.96791393  0.57556013  0.78367651    -0.80400
O3703       O  0.93236177  0.61486185  0.77711019    -0.80400
O3704       O  0.56762622  0.62329368  0.71799061    -0.80400
O3705       O  0.54049716  0.58597916  0.78343452    -0.80300
O3706       O  0.95785439  0.57840560  0.71576144    -0.80400
Co3707     Co  0.54604841  0.65573650  0.74820844     1.51500
Co3708     Co  0.95517185  0.64888651  0.74835199     1.51700
Co3709     Co  0.49822359  0.61065479  0.70411767     1.51600
Co3710     Co  0.00280291  0.60862166  0.79518863     1.51500
O3711       O  0.00154214  0.62751456  0.74847318    -1.42300
C3712       C  0.56880050  0.60028535  0.78469641     1.09200
C3713       C  0.93138734  0.59364901  0.71156222     1.09300
C3714       C  0.56274258  0.59248293  0.71431365     1.09300
C3715       C  0.93873581  0.58561183  0.78504388     1.09200
O3716       O  0.53003650  0.86440897  0.68978284    -0.80400
O3717       O  0.96560042  0.85734596  0.82197266    -0.80400
O3718       O  0.52892804  0.82374846  0.79828773    -0.80400
O3719       O  0.96417962  0.82174584  0.71457715    -0.80400
O3720       O  0.52256461  0.86757102  0.82868673    -0.80500
O3721       O  0.96524524  0.86652124  0.68588420    -0.80400
O3722       O  0.96461548  0.81686634  0.78615433    -0.80400
O3723       O  0.53478048  0.82188854  0.72173801    -0.80400
C3724       C  0.53872289  0.83541612  0.69381796     1.09300
C3725       C  0.96157750  0.82697545  0.81519699     1.09200
C3726       C  0.52866648  0.83782134  0.82649644     1.09300
C3727       C  0.96095067  0.83585690  0.68744082     1.09200
O3728       O  0.95934972  0.92513747  0.72483584    -0.80400
O3729       O  0.53018931  0.92550926  0.79263749    -0.80500
O3730       O  0.56549826  0.88248968  0.73083958    -0.80400
O3731       O  0.92592644  0.87479837  0.78612650    -0.80400
O3732       O  0.95710099  0.91927232  0.78949316    -0.80400
O3733       O  0.53391916  0.92457024  0.72486873    -0.80400
O3734       O  0.92806367  0.88047876  0.72523789    -0.80300
O3735       O  0.56331231  0.88411447  0.79184780    -0.80400
Co3736     Co  0.49822272  0.89362577  0.71027296     1.51500
Co3737     Co  0.49291458  0.89316187  0.80213622     1.51700
Co3738     Co  0.54273356  0.85252090  0.76035412     1.51600
Co3739     Co  0.95055558  0.84875688  0.75315889     1.51500
O3740       O  0.49611160  0.87181242  0.75606399    -1.42300
C3741       C  0.93070316  0.91136062  0.72354213     1.09200
C3742       C  0.55880361  0.91414031  0.79670544     1.09300
C3743       C  0.56203852  0.91209779  0.72393550     1.09300
C3744       C  0.92896670  0.90520543  0.79173833     1.09200
C3745       C  0.86813340  0.91084068  0.79001460    -0.12500
C3746       C  0.89898683  0.92321309  0.80008092     0.04500
C3747       C  0.90023408  0.95094069  0.81998352    -0.07800
C3748       C  0.87117751  0.96511673  0.82985212    -0.08500
C3749       C  0.84011348  0.95392965  0.81872436    -0.03100
C3750       C  0.83907568  0.92627640  0.79822156     0.03700
N3751       N  0.80883481  0.91121555  0.78832395     0.66200
H3752       H  0.86638958  0.88845999  0.77606776     0.15100
H3753       H  0.87292641  0.98346719  0.84835046     0.14800
N3754       N  0.93062005  0.96273570  0.83319486     0.73900
O3755       O  0.80008291  0.88442754  0.80066166    -0.39500
O3756       O  0.79684685  0.91889832  0.76157157    -0.39500
O3757       O  0.94789171  0.98272334  0.81726659    -0.40200
O3758       O  0.94461766  0.45527162  0.84554721    -0.40200
C3759       C  0.60971471  0.94990961  0.78924495    -0.12500
C3760       C  0.58802153  0.93270634  0.80993855     0.04500
C3761       C  0.60041918  0.92368374  0.84025173    -0.07800
C3762       C  0.63222496  0.93245478  0.84932070    -0.08500
C3763       C  0.65363650  0.94943107  0.82876689    -0.03100
C3764       C  0.64271271  0.95744908  0.79809224     0.03700
N3765       N  0.66510008  0.97324194  0.77640586     0.66200
H3766       H  0.60100715  0.95717785  0.76616634     0.15100
H3767       H  0.63983200  0.92690063  0.87363567     0.14800
N3768       N  0.58101822  0.90618814  0.86306782     0.73900
O3769       O  0.68756077  0.95680172  0.76469032    -0.39500
O3770       O  0.67080609  0.00332096  0.77965535    -0.39500
O3771       O  0.58818940  0.87721065  0.86877688    -0.40200
O3772       O  0.56765274  0.92236867  0.88508224    -0.40200
C3773       C  0.87837779  0.54918324  0.84457250    -0.12500
C3774       C  0.84968301  0.54671492  0.82575326     0.04500
C3775       C  0.85309138  0.54999213  0.79224988    -0.07800
C3776       C  0.88365010  0.55843348  0.77997332    -0.08500
C3777       C  0.91122144  0.56534988  0.79846524    -0.03100
C3778       C  0.90858901  0.55889507  0.83164712     0.03700
N3779       N  0.93601119  0.56195564  0.85279455     0.66200
H3780       H  0.87762530  0.54299914  0.87002812     0.15100
H3781       H  0.88634059  0.56005612  0.75026784     0.14800
N3782       N  0.82619210  0.54366317  0.77108762     0.73900
O3783       O  0.93709869  0.58527445  0.87274249    -0.39500
O3784       O  0.95098414  0.53660030  0.85958640    -0.39500
O3785       O  0.80709907  0.56618882  0.76484821    -0.40200
O3786       O  0.82575716  0.51840845  0.75354323    -0.40200
C3787       C  0.65858637  0.57886017  0.79680728    -0.12500
C3788       C  0.65558274  0.55423719  0.81950766     0.04500
C3789       C  0.62343145  0.54476141  0.82993788    -0.07800
C3790       C  0.59607260  0.55975013  0.81765042    -0.08500
C3791       C  0.59899738  0.58408070  0.79488944    -0.03100
C3792       C  0.63104217  0.59440390  0.78505737     0.03700
N3793       N  0.63684633  0.62191399  0.76492516     0.66200
H3794       H  0.68265000  0.58760760  0.78957531     0.15100
H3795       H  0.57210628  0.55222186  0.82630906     0.14800
N3796       N  0.61720910  0.51984489  0.85300172     0.73900
O3797       O  0.64777346  0.61700042  0.73703097    -0.39500
O3798       O  0.64378661  0.64891567  0.77838386    -0.39500
O3799       O  0.61292032  0.52826380  0.88189279    -0.40200
O3800       O  0.60229722  0.49440467  0.84321629    -0.40200
C3801       C  0.87069463  0.90773625  0.71342904    -0.12500
C3802       C  0.89861407  0.92812938  0.71870111     0.04500
C3803       C  0.89321866  0.96183080  0.71953419    -0.07800
C3804       C  0.86227203  0.97326005  0.71035674    -0.08500
C3805       C  0.83798062  0.95233841  0.69657382    -0.03100
C3806       C  0.84224935  0.91882289  0.69950427     0.03700
N3807       N  0.81968273  0.89530033  0.68583937     0.66200
H3808       H  0.87139123  0.88207126  0.71791820     0.15100
H3809       H  0.85790688  0.99866314  0.71277468     0.14800
N3810       N  0.91781986  0.98455793  0.73068829     0.73900
O3811       O  0.82564852  0.88416426  0.65811261    -0.39500
O3812       O  0.80215515  0.87823064  0.70447967    -0.39500
O3813       O  0.93969003  0.99429438  0.71147234    -0.40200
O3814       O  0.91297859  0.00065254  0.75619170    -0.40200
C3815       C  0.62467780  0.96198420  0.67695052    -0.12500
C3816       C  0.65368375  0.94792288  0.68751024     0.04500
C3817       C  0.65177203  0.92324273  0.71067269    -0.07800
C3818       C  0.62163270  0.91510362  0.72388923    -0.08500
C3819       C  0.59241891  0.92874974  0.71310243    -0.03100
C3820       C  0.59415746  0.95248459  0.68906261     0.03700
N3821       N  0.56567363  0.96435221  0.67384294     0.66200
H3822       H  0.62537261  0.97900588  0.65728388     0.15100
H3823       H  0.62099344  0.89581465  0.74152387     0.14800
N3824       N  0.67741617  0.90096717  0.71558863     0.73900
O3825       O  0.55622418  0.99220016  0.68166919    -0.39500
O3826       O  0.55750459  0.95289890  0.64656400    -0.39500
O3827       O  0.69126040  0.90021050  0.74268813    -0.40200
O3828       O  0.67542912  0.87466602  0.69988260    -0.40200
C3829       C  0.90201455  0.55456087  0.67637300    -0.12500
C3830       C  0.90059322  0.57892191  0.69946285     0.04500
C3831       C  0.86958837  0.59166777  0.70750160    -0.07800
C3832       C  0.84100172  0.57492551  0.69783881    -0.08500
C3833       C  0.84238515  0.54960710  0.67550923    -0.03100
C3834       C  0.87358849  0.54159253  0.66250040     0.03700
N3835       N  0.87736334  0.52129056  0.63459423     0.66200
H3836       H  0.92539613  0.54732840  0.66717365     0.15100
H3837       H  0.81760370  0.58406357  0.70494330     0.14800
N3838       N  0.86633534  0.62202588  0.72423979     0.73900
O3839       O  0.87862117  0.02973256  0.61536554    -0.39500
O3840       O  0.88824919  0.99003395  0.64745062    -0.39500
O3841       O  0.86091869  0.64700601  0.70790662    -0.40200
O3842       O  0.85821869  0.62185186  0.75351955    -0.40200
C3843       C  0.63129029  0.52914904  0.70443752    -0.12500
C3844       C  0.65280915  0.54599915  0.68356277     0.04500
C3845       C  0.64345408  0.57697306  0.67371130    -0.07800
C3846       C  0.61360318  0.58937634  0.68283276    -0.08500
C3847       C  0.59166558  0.57318427  0.70323589    -0.03100
C3848       C  0.60112331  0.54231304  0.71450322     0.03700
N3849       N  0.58221125  0.52500687  0.73788009     0.66200
H3850       H  0.63778130  0.50552834  0.71301044     0.15100
H3851       H  0.60810989  0.61399389  0.67424042     0.14800
N3852       N  0.66448531  0.59729495  0.65510935     0.73900
O3853       O  0.59523984  0.51919748  0.76455146    -0.39500
O3854       O  0.55808493  0.50742187  0.72895800    -0.39500
O3855       O  0.65778359  0.60018339  0.62570136    -0.40200
O3856       O  0.67955071  0.62048277  0.66943650    -0.40200
C3857       C  0.78699058  0.86576935  0.59485647    -0.12500
C3858       C  0.79287238  0.89617904  0.57939123     0.04500
C3859       C  0.80486146  0.89502128  0.54763811    -0.07800
C3860       C  0.81289966  0.86516754  0.53346208    -0.08500
C3861       C  0.80892974  0.83527433  0.54928261    -0.03100
C3862       C  0.79459843  0.83570169  0.57996855     0.03700
N3863       N  0.78899091  0.80587185  0.59665538     0.66200
H3864       H  0.77647008  0.86523153  0.61874605     0.15100
H3865       H  0.82376723  0.86562546  0.51001298     0.14800
N3866       N  0.81000937  0.92383827  0.52933717     0.73900
O3867       O  0.81221036  0.79381420  0.61197401    -0.39500
O3868       O  0.76506613  0.78762297  0.58826475    -0.39500
O3869       O  0.83819276  0.93697982  0.52870190    -0.40200
O3870       O  0.79031271  0.92951845  0.50686170    -0.40200
C3871       C  0.82261468  0.64403851  0.58145978    -0.12500
C3872       C  0.83018149  0.64649308  0.54922814     0.04500
C3873       C  0.83171456  0.61667501  0.53108620    -0.07800
C3874       C  0.81435180  0.58854505  0.54216646    -0.08500
C3875       C  0.80353145  0.58718297  0.57404238    -0.03100
C3876       C  0.81264377  0.61436240  0.59454603     0.03700
N3877       N  0.81414991  0.61257492  0.62881567     0.66200
H3878       H  0.82670547  0.66491474  0.59739477     0.15100
H3879       H  0.81212888  0.56688017  0.52714363     0.14800
N3880       N  0.85454537  0.61274491  0.50524097     0.73900
O3881       O  0.84223817  0.61260742  0.64117278    -0.39500
O3882       O  0.79149994  0.62460501  0.64510608    -0.39500
O3883       O  0.88385245  0.62187845  0.50974867    -0.40200
O3884       O  0.84886305  0.59109054  0.48402902    -0.40200
C3885       C  0.85333058  0.92114161  0.94463488    -0.12500
C3886       C  0.82319705  0.91602651  0.92895587     0.04500
C3887       C  0.81116413  0.88383676  0.92465227    -0.07800
C3888       C  0.82718952  0.85836528  0.93813670    -0.08500
C3889       C  0.85737305  0.86297963  0.95320309    -0.03100
C3890       C  0.87095356  0.89494967  0.95596385     0.03700
N3891       N  0.90276982  0.90155173  0.96880044     0.66200
H3892       H  0.86393087  0.94552087  0.94727526     0.15100
H3893       H  0.81602895  0.83424541  0.93518784     0.14800
N3894       N  0.78322510  0.87540953  0.90590820     0.73900
O3895       O  0.92588469  0.90651113  0.94929085    -0.39500
O3896       O  0.90534931  0.91326767  0.99694501    -0.39500
O3897       O  0.78778222  0.86789236  0.87674475    -0.40200
O3898       O  0.75999288  0.86145492  0.92049405    -0.40200
C3899       C  0.78290620  0.60329322  0.96383774    -0.12500
C3900       C  0.80072303  0.58873199  0.93895203     0.04500
C3901       C  0.82721519  0.60641108  0.92585144    -0.07800
C3902       C  0.83318810  0.63841996  0.93418341    -0.08500
C3903       C  0.81627637  0.65365559  0.95878470    -0.03100
C3904       C  0.79017020  0.63595726  0.97422129     0.03700
N3905       N  0.77018728  0.65013399  0.99892821     0.66200
H3906       H  0.76186454  0.59009695  0.97334327     0.15100
H3907       H  0.85335250  0.65105175  0.92220908     0.14800
N3908       N  0.84874675  0.59252279  0.90319825     0.73900
O3909       O  0.74759533  0.63338149  0.01193907    -0.39500
O3910       O  0.77431269  0.67941894  0.00768258    -0.39500
O3911       O  0.84836028  0.60336025  0.87489096    -0.40200
O3912       O  0.87498185  0.58165227  0.91398855    -0.40200
C3913       C  0.95148968  0.78142772  0.89420538    -0.12500
C3914       C  0.92104397  0.79275407  0.90362998     0.04500
C3915       C  0.90252278  0.80898062  0.87984093    -0.07800
C3916       C  0.91556563  0.81576846  0.84964917    -0.08500
C3917       C  0.94648449  0.80653738  0.84093713     0.02300
C3918       C  0.96373006  0.78682470  0.86260229     0.03700
N3919       N  0.99243967  0.77072578  0.85270198     0.66200
H3920       H  0.96495151  0.76691808  0.91094917     0.15100
H3921       H  0.90172619  0.83040485  0.83321889     0.14800
N3922       N  0.87083799  0.82089271  0.88560110     0.73900
O3923       O  0.50803518  0.76250945  0.87135875    -0.39500
O3924       O  0.99658957  0.76322613  0.82345926    -0.39500
O3925       O  0.86779533  0.85128454  0.88414952    -0.40200
O3926       O  0.84664824  0.80273699  0.87775887    -0.40200
C3927       C  0.91211829  0.82829525  0.61124978    -0.12500
C3928       C  0.92993412  0.80788597  0.59149852     0.04500
C3929       C  0.95833887  0.79407645  0.60454920    -0.07800
C3930       C  0.96657423  0.79945771  0.63767228    -0.08500
C3931       C  0.94795943  0.81981616  0.65729114    -0.03100
C3932       C  0.92047898  0.83357411  0.64333650     0.03700
N3933       N  0.89939992  0.85205673  0.66244509     0.66200
H3934       H  0.88982263  0.83851480  0.60231403     0.15100
H3935       H  0.98864137  0.78972311  0.64732968     0.14800
N3936       N  0.98019065  0.77678940  0.58433093     0.73900
O3937       O  0.89956923  0.88249034  0.65916711    -0.39500
O3938       O  0.88432429  0.83848912  0.68535372    -0.39500
O3939       O  0.98799588  0.78810583  0.55719778    -0.40200
O3940       O  0.99696420  0.75474112  0.59614164    -0.40200
C3941       C  0.90901572  0.71804035  0.87124332    -0.12500
C3942       C  0.91656959  0.70413158  0.90161331     0.04500
C3943       C  0.93423611  0.67538349  0.90088455    -0.07800
C3944       C  0.94393620  0.66190672  0.87153976    -0.08500
C3945       C  0.94065922  0.67767224  0.84183473    -0.03100
C3946       C  0.92185466  0.70569634  0.84171732     0.03700
N3947       N  0.91362094  0.72003351  0.81172894     0.66200
H3948       H  0.89344493  0.73873404  0.87040119     0.15100
H3949       H  0.95681800  0.63962998  0.87269505     0.14800
N3950       N  0.94219026  0.65853196  0.92959814     0.73900
O3951       O  0.89287532  0.70541881  0.79380258    -0.39500
O3952       O  0.93316259  0.74063586  0.79940346    -0.39500
O3953       O  0.97122413  0.66060747  0.93971026    -0.40200
O3954       O  0.92472401  0.63402761  0.93723882    -0.40200
C3955       C  0.96067575  0.68863068  0.59322340    -0.12500
C3956       C  0.93759187  0.71257452  0.59495358     0.04500
C3957       C  0.92702988  0.72236334  0.62657930    -0.07800
C3958       C  0.94206014  0.71059129  0.65434985    -0.08500
C3959       C  0.96217896  0.68406660  0.65267434    -0.03100
C3960       C  0.96992173  0.67174916  0.62100402     0.03700
N3961       N  0.98128811  0.63949704  0.61555461     0.66200
H3962       H  0.96683863  0.67891479  0.56969683     0.15100
H3963       H  0.93373113  0.71881966  0.67774662     0.14800
N3964       N  0.89757392  0.73941022  0.63181454     0.73900
O3965       O  0.96231774  0.61576278  0.62220523    -0.39500
O3966       O  0.00185545  0.63521420  0.59354345    -0.39500
O3967       O  0.87119991  0.72279411  0.63300796    -0.40200
O3968       O  0.89917302  0.76577554  0.64754081    -0.40200
C3969       C  0.69033295  0.84985993  0.92677310    -0.12500
C3970       C  0.67594858  0.84868500  0.95667394     0.04500
C3971       C  0.67047116  0.87879673  0.97335799    -0.07800
C3972       C  0.68523279  0.90798900  0.96234039    -0.08500
C3973       C  0.69902882  0.90910619  0.93172900    -0.03100
C3974       C  0.69746665  0.87958049  0.91252999     0.03700
N3975       N  0.69955362  0.87886839  0.87799485     0.66200
H3976       H  0.69179456  0.82780407  0.91232383     0.15100
H3977       H  0.68264119  0.93033484  0.97606372     0.14800
N3978       N  0.64617377  0.88139706  0.99785915     0.73900
O3979       O  0.72431696  0.86725942  0.86487054    -0.39500
O3980       O  0.67326811  0.87761227  0.86219175    -0.39500
O3981       O  0.65902381  0.89273980  0.52340300    -0.40200
O3982       O  0.61729769  0.88623789  0.98903284    -0.40200
C3983       C  0.65652178  0.63474499  0.94524160    -0.12500
C3984       C  0.67732728  0.66163883  0.95267030     0.04500
C3985       C  0.70978513  0.66061992  0.94229012    -0.07800
C3986       C  0.72175461  0.63087152  0.93046691    -0.08500
C3987       C  0.70162876  0.60218973  0.92840048    -0.03100
C3988       C  0.66793011  0.60618366  0.93169676     0.03700
N3989       N  0.64491949  0.58590429  0.91429158     0.66200
H3990       H  0.63035220  0.63641774  0.94757568     0.15100
H3991       H  0.74607768  0.63078598  0.92054854     0.14800
N3992       N  0.72815593  0.69034778  0.93754598     0.73900
O3993       O  0.62331171  0.57016861  0.92967392    -0.39500
O3994       O  0.63882273  0.59350658  0.88557513    -0.39500
O3995       O  0.74125768  0.70487264  0.96137037    -0.40200
O3996       O  0.72286824  0.70640781  0.91244529    -0.40200
C3997       C  0.72182553  0.88329755  0.54813983    -0.12500
C3998       C  0.71011792  0.89072327  0.57908092     0.04500
C3999       C  0.69716347  0.86423935  0.59747263    -0.07800
C4000       C  0.69347983  0.83321006  0.58438226    -0.08500
C4001       C  0.70126726  0.82668102  0.55266890    -0.03100
C4002       C  0.71844637  0.85113042  0.53510290     0.03700
N4003       N  0.73529613  0.84282060  0.50606898     0.66200
H4004       H  0.73442763  0.90220085  0.53466471     0.15100
H4005       H  0.68118715  0.81451289  0.59858946     0.14800
N4006       N  0.68763661  0.86751495  0.63016294     0.73900
O4007       O  0.74605385  0.86494208  0.48773140    -0.39500
O4008       O  0.74526806  0.81431633  0.50222595    -0.39500
O4009       O  0.65754471  0.86836797  0.63627689    -0.40200
O4010       O  0.70650484  0.85608160  0.65091862    -0.40200
C4011       C  0.69354467  0.64310025  0.55901016    -0.12500
C4012       C  0.66396838  0.64052763  0.54275644     0.04500
C4013       C  0.64827278  0.60882192  0.54077312    -0.07800
C4014       C  0.66474988  0.58125634  0.55211317    -0.08500
C4015       C  0.69451808  0.58448246  0.56898727    -0.03100
C4016       C  0.70738588  0.61669869  0.57394267     0.03700
N4017       N  0.73291887  0.62474875  0.59617348     0.66200
H4018       H  0.70510575  0.66689829  0.56299936     0.15100
H4019       H  0.65252645  0.55752180  0.55057408     0.14800
N4020       N  0.61487805  0.60392340  0.53079108     0.73900
O4021       O  0.75560484  0.64300022  0.58580171    -0.39500
O4022       O  0.72536177  0.62810198  0.62539015    -0.39500
O4023       O  0.63710528  0.57717001  0.98966780    -0.40200
O4024       O  0.59349112  0.60013926  0.55221997    -0.40200
C4025       C  0.53733288  0.81657214  0.91728868    -0.12500
C4026       C  0.56512702  0.79781267  0.91676040     0.04500
C4027       C  0.58075196  0.79404274  0.88575237    -0.07800
C4028       C  0.56527379  0.80288930  0.85714717    -0.08500
C4029       C  0.53837110  0.82233188  0.85766291    -0.03100
C4030       C  0.52560407  0.83104134  0.88879205     0.03700
N4031       N  0.50279529  0.85634236  0.89272314     0.66200
H4032       H  0.52637681  0.82252418  0.94024440     0.15100
H4033       H  0.57744307  0.79890546  0.83433402     0.14800
N4034       N  0.61493879  0.78884136  0.88262196     0.73900
O4035       O  0.47406799  0.84881809  0.90107143    -0.39500
O4036       O  0.51384094  0.88443298  0.90006515    -0.39500
O4037       O  0.62439106  0.76942768  0.86111423    -0.40200
O4038       O  0.63428598  0.81180422  0.89114961    -0.40200
C4039       C  0.57354426  0.79250394  0.66662539    -0.12500
C4040       C  0.55532775  0.82068344  0.66468288     0.04500
C4041       C  0.55643932  0.83737473  0.63444964    -0.07800
C4042       C  0.56782144  0.82213877  0.60662851    -0.08500
C4043       C  0.58574374  0.79416631  0.60831022    -0.03100
C4044       C  0.59132557  0.78119096  0.63962609     0.03700
N4045       N  0.61754778  0.76001226  0.64558086     0.66200
H4046       H  0.57666795  0.78118100  0.68983210     0.15100
H4047       H  0.56632879  0.83479779  0.58390090     0.14800
N4048       N  0.55140516  0.87152882  0.63197756     0.73900
O4049       O  0.64581525  0.77269809  0.64862588    -0.39500
O4050       O  0.61150813  0.73335439  0.65933329    -0.39500
O4051       O  0.57625343  0.89038129  0.63362088    -0.40200
O4052       O  0.99369445  0.85711514  0.60757371    -0.40200
C4053       C  0.56965858  0.70708613  0.89020792    -0.12500
C4054       C  0.60343852  0.70691014  0.88704417     0.04500
C4055       C  0.61663748  0.69910797  0.85650277    -0.07800
C4056       C  0.59536715  0.69297856  0.83008353    -0.08500
C4057       C  0.56138033  0.69238595  0.83419756    -0.03100
C4058       C  0.54937731  0.69804622  0.86505102     0.03700
N4059       N  0.51687118  0.68972076  0.87246694     0.66200
H4060       H  0.55834103  0.71270873  0.91310355     0.15100
H4061       H  0.60531363  0.68613940  0.80699719     0.14800
N4062       N  0.65067473  0.69472046  0.85217563     0.73900
O4063       O  0.01170706  0.65803517  0.87935420    -0.39500
O4064       O  0.99848758  0.70251072  0.85495914    -0.39500
O4065       O  0.66114320  0.66625539  0.85385538    -0.40200
O4066       O  0.66683849  0.71564812  0.83634035    -0.40200
C4067       C  0.57402439  0.67479218  0.64721585    -0.12500
C4068       C  0.54845728  0.69106890  0.66020593     0.04500
C4069       C  0.53488565  0.71680050  0.64262466    -0.07800
C4070       C  0.54556997  0.72206379  0.61033526    -0.08500
C4071       C  0.56976795  0.70258929  0.59651308    -0.03100
C4072       C  0.58393431  0.67886482  0.61610728     0.03700
N4073       N  0.60825380  0.65748756  0.60514622     0.66200
H4074       H  0.58601986  0.65603262  0.66168064     0.15100
H4075       H  0.53606922  0.74192539  0.59660201     0.14800
N4076       N  0.51122303  0.73760587  0.65684053     0.73900
O4077       O  0.63766491  0.66610766  0.60992511    -0.39500
O4078       O  0.60091363  0.62751583  0.60596102    -0.39500
O4079       O  0.06067926  0.73631732  0.69209213    -0.40200
O4080       O  0.01002286  0.73499159  0.67679187    -0.40200
loop_ 
_geom_bond_atom_site_label_1 
_geom_bond_atom_site_label_2 
_geom_bond_distance 
_geom_bond_site_symmetry_2 
_ccdc_geom_bond_type 
O1            C9   1.274       .  A
O1          Co21   2.015   1_554  S
O2           C10   1.290       .  A
O2          Co22   2.046       .  S
O3           C11   1.268       .  A
O3          Co23   2.003       .  S
O4           C12   1.289       .  A
O4          Co24   1.947       .  S
O5           C11   1.286       .  A
O5         Co532   2.007       .  S
O6           C12   1.334       .  A
O6         Co531   2.190       .  S
O7           C10   1.241       .  A
O7          Co24   1.933       .  S
O8            C9   1.262       .  A
O8          Co23   1.983       .  S
C9          C501   1.476       .  S
C10         C456   1.512       .  S
C11         C473   1.495       .  S
C12         C484   1.493       .  S
O13          C26   1.291       .  A
O13        Co531   2.016       .  S
O14          C27   1.282       .  A
O14        Co532   1.992       .  S
O15          C28   1.291       .  A
O15         Co23   2.006       .  S
O16          C29   1.291       .  A
O16         Co24   2.039       .  S
O17          C29   1.255       .  A
O17         Co22   1.960       .  S
O18          C28   1.290       .  A
O18         Co21   2.068   1_554  S
O19          C26   1.271       .  A
O19         Co24   1.950       .  S
O20          C27   1.284       .  A
O20         Co23   2.006       .  S
Co21        O516   2.181       .  S
Co21        O523   2.029       .  S
Co21         O25   2.037   1_556  S
Co22        O515   2.019       .  S
Co22        O524   1.977       .  S
Co22        O535   2.059       .  S
Co23         O25   2.074       .  S
Co24        O535   1.969       .  S
O25        Co532   2.060       .  S
O25        Co534   1.959   1_554  S
C26         C414   1.479       .  S
C27         C431   1.475       .  S
C28         C442   1.518       .  S
C29         C400   1.486       .  S
O30          C38   1.260       .  A
O30         Co50   1.957       .  S
O31          C39   1.268       .  A
O31         Co51   1.965       .  S
O32          C40   1.296       .  A
O32        Co562   2.028       .  S
O33          C41   1.286       .  A
O33        Co563   2.027   1_554  S
O34          C40   1.277       .  A
O34         Co51   2.027       .  S
O35          C41   1.279       .  A
O35         Co50   2.010       .  S
O36          C39   1.291       .  A
O36         Co53   2.022       .  S
O37          C38   1.302       .  A
O37         Co52   2.055   1_554  S
C38         C386   1.508       .  S
C39         C344   1.481       .  S
C40         C372   1.507       .  S
C41         C358   1.498       .  S
O42          C55   1.275       .  A
O42         Co50   2.016       .  S
O43          C56   1.297       .  A
O43         Co51   2.024       .  S
O44          C57   1.261       .  A
O44         Co52   1.989   1_554  S
O45          C58   1.283       .  A
O45         Co53   1.893       .  S
O46          C58   1.343       .  A
O46         Co51   2.154       .  S
O47          C57   1.290       .  A
O47         Co50   2.009       .  S
O48          C55   1.260       .  A
O48        Co563   2.005   1_554  S
O49          C56   1.285       .  A
O49        Co562   2.004       .  S
Co50         O54   2.041       .  S
Co51        O564   1.962       .  S
Co52        O542   2.010       .  S
Co52        O559   1.977       .  S
Co52         O54   2.068   1_556  S
Co53        O543   2.008       .  S
Co53        O558   2.015       .  S
Co53        O564   1.974       .  S
O54        Co561   2.057   1_554  S
O54        Co563   1.983   1_554  S
C55         C291   1.503       .  S
C56         C333   1.497       .  S
C57         C302   1.491       .  S
C58         C319   1.501       .  S
O59          C67   1.298       .  A
O59         Co79   2.052       .  S
O60          C68   1.282       .  A
O60         Co80   2.014       .  S
O61          C69   1.267       .  A
O61       Co1101   1.980       .  S
O62          C70   1.252       .  A
O62         Co82   1.944   1_545  S
O63          C69   1.279       .  A
O63         Co80   2.002       .  S
O64          C70   1.294       .  A
O64         Co79   2.033       .  S
O65          C68   1.275       .  A
O65       Co1102   2.016       .  S
O66          C67   1.264       .  A
O66         Co81   1.975   1_545  S
C67         C274   1.515       .  S
C68         C235   1.507       .  S
C69         C246   1.474       .  S
C70         C263   1.482       .  S
O71          C84   1.270       .  A
O71         Co79   1.985       .  S
O72          C85   1.270       .  A
O72         Co80   1.989       .  S
O73          C86   1.298       .  A
O73         Co81   2.053   1_545  S
O74          C87   1.289       .  A
O74       Co1102   2.031       .  S
O75          C87   1.271       .  A
O75         Co80   2.013       .  S
O76          C86   1.262       .  A
O76         Co79   1.988       .  S
O77          C84   1.296       .  A
O77         Co82   2.032   1_545  S
O78          C85   1.287       .  A
O78       Co1101   2.023       .  S
Co79         O83   2.109   1_545  S
Co80       O1103   2.113       .  S
Co81       O1081   2.008       .  S
Co81       O1098   2.017       .  S
Co81         O83   2.103       .  S
Co82       O1085   2.062       .  S
Co82       O1094   2.040       .  S
Co82         O83   2.112       .  S
O83       Co1100   2.110       .  S
C84         C305   1.503       .  S
C85         C428   1.485       .  S
C86         C445   1.519       .  S
C87         C288   1.515       .  S
O88          C96   1.263       .  A
O88        Co108   1.958       .  S
O89          C97   1.267       .  A
O89       Co1129   1.996       .  S
O90          C98   1.293       .  A
O90        Co110   2.024       .  S
O91          C99   1.285       .  A
O91        Co111   2.017       .  S
O92          C98   1.284       .  A
O92        Co109   2.013       .  S
O93          C99   1.270       .  A
O93       Co1128   1.981       .  S
O94          C97   1.280       .  A
O94        Co111   1.993       .  S
O95          C96   1.299       .  A
O95        Co110   2.033       .  S
C96         C218   1.489       .  S
C97         C179   1.474       .  S
C98         C204   1.501       .  S
C99         C193   1.491       .  S
O100        C113   1.295       .  A
O100      Co1128   2.037       .  S
O101        C114   1.280       .  A
O101       Co109   2.001       .  S
O102        C115   1.261       .  A
O102       Co110   1.970       .  S
O103        C116   1.273       .  A
O103       Co111   2.018       .  S
O104        C116   1.282       .  A
O104      Co1129   1.998       .  S
O105        C115   1.294       .  A
O105       Co108   2.033       .  S
O106        C113   1.256       .  A
O106       Co111   1.947       .  S
O107        C114   1.277       .  A
O107       Co110   2.010       .  S
Co108      O1113   1.972   1_545  S
Co108      O1120   2.048   1_545  S
Co108       O112   2.075       .  S
Co109      O1109   2.048   1_545  S
Co109      O1124   1.892   1_545  S
Co109       O112   1.957       .  S
Co110       O112   2.057       .  S
Co111      O1132   2.106       .  S
O112      Co1131   2.096   1_545  S
C113        C403   1.498       .  S
C114        C330   1.488       .  S
C115        C417   1.482       .  S
C116        C316   1.498       .  S
O117        C125   1.265       .  A
O117       Co137   1.973       .  S
O118        C126   1.280       .  A
O118       Co138   2.006       .  S
O119        C127   1.266       .  A
O119      Co2179   1.992       .  S
O120        C128   1.281       .  A
O120      Co2180   2.034       .  S
O121        C127   1.302       .  A
O121       Co138   2.047       .  S
O122        C128   1.276       .  A
O122       Co137   1.976       .  S
O123        C126   1.265       .  A
O123       Co140   1.989       .  S
O124        C125   1.266       .  A
O124       Co139   1.993   1_455  S
C125        C498   1.475       .  S
C126        C375   1.514       .  S
C127        C389   1.515       .  S
C128        C487   1.492       .  S
O129        C142   1.249       .  A
O129       Co137   1.966       .  S
O130        C143   1.248       .  A
O130       Co138   1.942       .  S
O131        C144   1.283       .  A
O131       Co139   2.004   1_455  S
O132        C145   1.282       .  A
O132       Co140   1.997       .  S
O133        C145   1.285       .  A
O133       Co138   2.049       .  S
O134        C144   1.281       .  A
O134       Co137   2.036       .  S
O135        C142   1.281       .  A
O135      Co2180   2.019       .  S
O136        C143   1.285       .  A
O136      Co2179   2.019       .  S
Co137      O2181   2.114       .  S
Co138       O141   2.119       .  S
Co139      O2159   1.996       .  S
Co139      O2176   2.020       .  S
Co139      O2181   2.107   1_655  S
Co140      O2160   2.013       .  S
Co140      O2175   2.023       .  S
Co140       O141   2.099       .  S
O141      Co2177   2.121       .  S
O141      Co2179   2.101       .  S
C142        C221   1.479       .  S
C143        C260   1.478       .  S
C144        C277   1.489       .  S
C145        C207   1.493       .  S
O146        C154   1.271       .  A
O146       Co166   2.009   1_455  S
O147        C155   1.277       .  A
O147      Co2207   2.005       .  S
O148        C156   1.281       .  A
O148       Co168   2.008       .  S
O149        C157   1.277       .  A
O149       Co169   2.019       .  S
O150        C156   1.258       .  A
O150       Co167   1.974   1_455  S
O151        C157   1.262       .  A
O151      Co2206   1.983       .  S
O152        C155   1.279       .  A
O152       Co169   1.996       .  S
O153        C154   1.284       .  A
O153       Co168   2.003       .  S
C154        C470   1.496       .  S
C155        C347   1.472       .  S
C156        C459   1.494       .  S
C157        C361   1.481       .  S
O158        C171   1.289       .  A
O158      Co2206   2.023       .  S
O159        C172   1.296       .  A
O159       Co167   2.042   1_455  S
O160        C173   1.272       .  A
O160       Co168   1.950       .  S
O161        C174   1.267       .  A
O161       Co169   1.977       .  S
O162        C174   1.274       .  A
O162      Co2207   1.982       .  S
O163        C173   1.288       .  A
O163       Co166   2.000   1_455  S
O164        C171   1.280       .  A
O164       Co169   2.023       .  S
O165        C172   1.281       .  A
O165       Co168   2.030       .  S
Co166      O2191   1.981       .  S
Co166      O2198   2.035       .  S
Co166       O170   2.111       .  S
Co167      O2187   2.024       .  S
Co167      O2202   1.978       .  S
Co167       O170   2.097       .  S
Co168       O170   1.951   1_455  S
Co169      O2210   2.044       .  S
O170      Co2209   2.040       .  S
C171        C232   1.507       .  S
C172        C190   1.509       .  S
C173        C249   1.472       .  S
C174        C176   1.476       .  S
C175        C176   1.405       .  A
C175        C180   1.387       .  A
C175        H182   1.084       .  S
C176        C177   1.400       .  A
C177        C178   1.400       .  A
C177        N184   1.428       .  S
C178        C179   1.411       .  A
C178        H183   1.070       .  S
C179        C180   1.403       .  A
C180        N181   1.422       .  S
N181        O185   1.257       .  A
N181        O186   1.261       .  A
N184       O1208   1.262       .  A
N184        O187   1.262       .  A
O188       N1204   1.262       .  A
C189        C190   1.420       .  A
C189        C194   1.427       .  A
C189        H196   1.070       .  S
C190        C191   1.411       .  A
C191        C192   1.394       .  A
C191        N198   1.423       .  S
C192        C193   1.402       .  A
C192        H197   1.084       .  S
C193        C194   1.399       .  A
C194        N195   1.432       .  S
N195        O199   1.260       .  A
N195        O200   1.257       .  A
N198        O202   1.262       .  A
N198        O201   1.261       .  A
C203        C204   1.414       .  A
C203        C208   1.401       .  A
C203        H210   1.078       .  S
C204        C205   1.404       .  A
C205        C206   1.408       .  A
C205        N212   1.426       .  S
C206        C207   1.404       .  A
C206        H211   1.032       .  S
C207        C208   1.405       .  A
C208        N209   1.427       .  S
N209        O213   1.259       .  A
N209        O214   1.261       .  A
N212        O216   1.261       .  A
N212        O215   1.261       .  A
C217        C218   1.393       .  A
C217        C222   1.403       .  A
C217        H224   1.084       .  S
C218        C219   1.435       .  A
C219        C220   1.395       .  A
C219        N226   1.428       .  S
C220        C221   1.385       .  A
C220        H225   1.085       .  S
C221        C222   1.429       .  A
C222        N223   1.429       .  S
N223        O227   1.261       .  A
N223        O228   1.262       .  A
N226        O230   1.257   1_545  A
N226        O229   1.259       .  A
C231        C232   1.412       .  A
C231        C236   1.408       .  A
C231        H238   1.074       .  S
C232        C233   1.410       .  A
C233        C234   1.409       .  A
C233        N240   1.428       .  S
C234        C235   1.410       .  A
C234        H239   1.075       .  S
C235        C236   1.405       .  A
C236        N237   1.425       .  S
N237        O241   1.262       .  A
N237        O242   1.261       .  A
N240        O244   1.261       .  A
N240        O243   1.262       .  A
C245        C246   1.418       .  A
C245        C250   1.393       .  A
C245        H252   1.085       .  S
C246        C247   1.411       .  A
C247        C248   1.388       .  A
C247        N254   1.439       .  S
C248        C249   1.417       .  A
C248        H253   1.085       .  S
C249        C250   1.402       .  A
C250        N251   1.433       .  S
N251        O255   1.260       .  A
N251        O256   1.259       .  A
N254        O258   1.259       .  A
N254        O257   1.260       .  A
C259        C260   1.383       .  A
C259        C264   1.393       .  A
C259        H266   1.085       .  S
C260        C261   1.433       .  A
C261        C262   1.398       .  A
C261        N268   1.431       .  S
C262        C263   1.388       .  A
C262        H267   1.084       .  S
C263        C264   1.438       .  A
C264        N265   1.431       .  S
N265       O1289   1.263       .  A
N265       O1290   1.262   1_545  A
N268        O272   1.261       .  A
N268        O271   1.263       .  A
O269       N1285   1.262       .  A
O270       N1285   1.262       .  A
C273        C274   1.403       .  A
C273        C278   1.426       .  A
C273        H280   1.077       .  S
C274        C275   1.438       .  A
C275        C276   1.397       .  A
C275        N282   1.432       .  S
C276        C277   1.386       .  A
C276        H281   1.083       .  S
C277        C278   1.409       .  A
C278        N279   1.426       .  S
N279        O283   1.253       .  A
N279        O284   1.262       .  A
N282        O286   1.258       .  A
N282        O285   1.262       .  A
C287        C288   1.427       .  A
C287        C292   1.419       .  A
C287        H294   1.083       .  S
C288        C289   1.406       .  A
C289        C290   1.402       .  A
C289        N296   1.425       .  S
C290        C291   1.406       .  A
C290        H295   1.071       .  S
C291        C292   1.403       .  A
C292        N293   1.428       .  S
N293        O297   1.262       .  A
N293        O298   1.262       .  A
N296        O300   1.261   1_554  A
N296        O299   1.262       .  A
C301        C302   1.372       .  A
C301        C306   1.385       .  A
C301        H308   1.086       .  S
C302        C303   1.429       .  A
C303        C304   1.418       .  A
C303        N310   1.427       .  S
C304        C305   1.403       .  A
C304        H309   1.084       .  S
C305        C306   1.430       .  A
C306        N307   1.418       .  S
N307        O311   1.262       .  A
N307        O312   1.261       .  A
N310        O314   1.261   1_554  A
N310        O313   1.262       .  A
C315        C316   1.410       .  A
C315        C320   1.425       .  A
C315        H322   1.084       .  S
C316        C317   1.409       .  A
C317        C318   1.375       .  A
C317        N324   1.405       .  S
C318        C319   1.375       .  A
C318        H323   1.085       .  S
C319        C320   1.434       .  A
C320        N321   1.430       .  S
N321        O325   1.263       .  A
N321        O326   1.262       .  A
N324        O328   1.254       .  A
N324        O327   1.258       .  A
C329        C330   1.405       .  A
C329        C334   1.430       .  A
C329        H336   1.083       .  S
C330        C331   1.406       .  A
C331        C332   1.383       .  A
C331        N338   1.423       .  S
C332        C333   1.397       .  A
C332        H337   1.086       .  S
C333        C334   1.436       .  A
C334        N335   1.442       .  S
N335        O339   1.263       .  A
N335        O340   1.260       .  A
N338        O342   1.262       .  A
N338        O341   1.262       .  A
C343        C344   1.397       .  A
C343        C348   1.414       .  A
C343        H350   1.083       .  S
C344        C345   1.423       .  A
C345        C346   1.389       .  A
C345        N352   1.428       .  S
C346        C347   1.390       .  A
C346        H351   1.086       .  S
C347        C348   1.414       .  A
C348        N349   1.430       .  S
N349       O2393   1.262       .  A
N349        O354   1.263       .  A
N352        O356   1.262       .  A
N352        O355   1.261       .  A
O353       N2389   1.261   1_455  A
C357        C358   1.411       .  A
C357        C362   1.401       .  A
C357        H364   1.085       .  S
C358        C359   1.419       .  A
C359        C360   1.415       .  A
C359        N366   1.427       .  S
C360        C361   1.403       .  A
C360        H365   1.082       .  S
C361        C362   1.406       .  A
C362        N363   1.429       .  S
N363        O367   1.260       .  A
N363        O368   1.263       .  A
N366        O370   1.261       .  A
N366        O369   1.261       .  A
C371        C372   1.429       .  A
C371        C376   1.427       .  A
C371        H378   1.081       .  S
C372        C373   1.398       .  A
C373        C374   1.392       .  A
C373        N380   1.426       .  S
C374        C375   1.407       .  A
C374        H379   1.075       .  S
C375        C376   1.406       .  A
C376        N377   1.429       .  S
N377        O381   1.262       .  A
N377        O382   1.261       .  A
N380        O384   1.261       .  A
N380        O383   1.262       .  A
C385        C386   1.393       .  A
C385        C390   1.411       .  A
C385        H392   1.085       .  S
C386        C387   1.440       .  A
C387        C388   1.407       .  A
C387        N394   1.431       .  S
C388        C389   1.389       .  A
C388        H393   1.085       .  S
C389        C390   1.442       .  A
C390        N391   1.434       .  S
N391        O395   1.262       .  A
N391        O396   1.260       .  A
N394        O398   1.258       .  A
N394        O397   1.262       .  A
C399        C400   1.381       .  A
C399        C404   1.393       .  A
C399        H406   1.082       .  S
C400        C401   1.437       .  A
C401        C402   1.412       .  A
C401        N408   1.435       .  S
C402        C403   1.394       .  A
C402        H407   1.084       .  S
C403        C404   1.440       .  A
C404        N405   1.436       .  S
N405        O409   1.258       .  A
N405        O410   1.259       .  A
N408        O412   1.262       .  A
N408        O921   1.260       .  A
O411        N918   1.259   1_554  A
C413        C414   1.402       .  A
C413        C418   1.386       .  A
C413        H420   1.084       .  S
C414        C415   1.399       .  A
C415        C416   1.413       .  A
C415        N422   1.429       .  S
C416        C417   1.417       .  A
C416        H421   1.078       .  S
C417        C418   1.408       .  A
C418        N419   1.425       .  S
N419        O423   1.261       .  A
N419        O424   1.262       .  A
N422        O426   1.262       .  A
N422        O425   1.259       .  A
C427        C428   1.404       .  A
C427        C432   1.423       .  A
C427        H434   1.082       .  S
C428        C429   1.413       .  A
C429        C430   1.382       .  A
C429        N436   1.423       .  S
C430        C431   1.389       .  A
C430        H435   1.085       .  S
C431        C432   1.418       .  A
C432        N433   1.433       .  S
N433        O437   1.261   1_554  A
N433        O438   1.262       .  A
N436        O440   1.255       .  A
N436        O439   1.262       .  A
C441        C442   1.398       .  A
C441        C446   1.408       .  A
C441        H448   1.085       .  S
C442        C443   1.434       .  A
C443        C444   1.424       .  A
C443        N450   1.432   1_554  S
C444        C445   1.396       .  A
C444        H449   1.083       .  S
C445        C446   1.438       .  A
C446        N447   1.441       .  S
N447        O451   1.259       .  A
N447        O452   1.261       .  A
N450        O454   1.261       .  A
N450        O963   1.261       .  A
O453        N960   1.262       .  A
C455        C456   1.390       .  A
C455        C460   1.408       .  A
C455        H462   1.083       .  S
C456        C457   1.451       .  A
C457        C458   1.399       .  A
C457        N464   1.430       .  S
C458        C459   1.384       .  A
C458        H463   1.086       .  S
C459        C460   1.434       .  A
C460        N461   1.427       .  S
N461        O465   1.258   1_455  A
N461        O466   1.260       .  A
N464        O468   1.257       .  A
N464        O467   1.261       .  A
C469        C470   1.399       .  A
C469        C474   1.407       .  A
C469        H476   1.084       .  S
C470        C471   1.428       .  A
C471        C472   1.396       .  A
C471        N478   1.428       .  S
C472        C473   1.392       .  A
C472        H477   1.084       .  S
C473        C474   1.428       .  A
C474        N475   1.430       .  S
N475        O479   1.262       .  A
N475        O480   1.261       .  A
N478       O2522   1.259   1_455  A
N478        O481   1.259       .  A
O482       N2518   1.260       .  A
C483        C484   1.394       .  A
C483        C488   1.388       .  A
C483        H490   1.085       .  S
C484        C485   1.419       .  A
C485        C486   1.417       .  A
C485        N492   1.425       .  S
C486        C487   1.405       .  A
C486        H491   1.081       .  S
C487        C488   1.395       .  A
C488        N489   1.400       .  S
N489       O2533   1.257       .  A
N489       O2534   1.257   1_455  A
N492        O496   1.261       .  A
N492        O495   1.262       .  A
O493       N2529   1.258       .  A
O494       N2529   1.255       .  A
C497        C498   1.399       .  A
C497        C502   1.386       .  A
C497        H504   1.082       .  S
C498        C499   1.405       .  A
C499        C500   1.409       .  A
C499        N506   1.431       .  S
C500        C501   1.408       .  A
C500        H505   1.069       .  S
C501        C502   1.404       .  A
C502        N503   1.424       .  S
N503        O507   1.256       .  A
N503        O508   1.261       .  A
N506       O2550   1.261       .  A
N506       O2549   1.262       .  A
O509       N2546   1.262       .  A
O510       N2546   1.260       .  A
O511        C519   1.271       .  A
O511       Co531   2.008       .  S
O512        C520   1.293       .  A
O512       Co532   2.061   1_556  S
O513        C521   1.269       .  A
O513       Co533   2.008       .  S
O514        C522   1.288       .  A
O514       Co534   1.930       .  S
O515        C521   1.288       .  A
O516        C522   1.333       .  A
O517        C520   1.247       .  A
O517       Co534   1.958       .  S
O518        C519   1.263       .  A
O518       Co533   1.985       .  S
C519       C1011   1.473       .  S
C520        C966   1.532       .  S
C521        C983   1.507       .  S
C522        C994   1.484       .  S
O523        C536   1.293       .  A
O524        C537   1.278       .  A
O525        C538   1.291       .  A
O525       Co533   2.002       .  S
O526        C539   1.288       .  A
O526       Co534   2.029       .  S
O527        C539   1.252       .  A
O527       Co532   1.951   1_556  S
O528        C538   1.292       .  A
O528       Co531   2.070       .  S
O529        C536   1.271       .  A
O529       Co534   1.956       .  S
O530        C537   1.285       .  A
O530       Co533   2.011       .  S
Co531       O535   2.041       .  S
Co533       O535   2.069       .  S
C536        C924   1.486       .  S
C537        C941   1.477       .  S
C538        C952   1.515       .  S
C539        C910   1.474       .  S
O540        C548   1.261       .  A
O540       Co560   1.946       .  S
O541        C549   1.292       .  A
O541       Co561   2.058       .  S
O542        C550   1.300       .  A
O543        C551   1.287       .  A
O544        C550   1.292       .  A
O544       Co561   2.053       .  S
O545        C551   1.285       .  A
O545       Co560   2.003       .  S
O546        C549   1.285       .  A
O546       Co563   2.017       .  S
O547        C548   1.305       .  A
O547       Co562   2.049       .  S
C548        C896   1.499       .  S
C549        C854   1.509       .  S
C550        C882   1.505       .  S
C551        C868   1.480       .  S
O552        C565   1.274       .  A
O552       Co560   2.023       .  S
O553        C566   1.273       .  A
O553       Co561   2.019       .  S
O554        C567   1.257       .  A
O554       Co562   1.971       .  S
O555        C568   1.282       .  A
O555       Co563   1.917       .  S
O556        C568   1.339       .  A
O556       Co561   2.194       .  S
O557        C567   1.290       .  A
O557       Co560   2.022       .  S
O558        C565   1.260       .  A
O559        C566   1.269       .  A
Co560       O564   1.999       .  S
Co562       O564   2.031       .  S
C565        C801   1.507       .  S
C566        C843   1.493       .  S
C567        C812   1.487       .  S
C568        C829   1.491       .  S
O569        C577   1.297       .  A
O569       Co589   2.053       .  S
O570        C578   1.279       .  A
O570       Co590   1.996       .  S
O571        C579   1.268       .  A
O571      Co1611   1.996       .  S
O572        C580   1.259       .  A
O572       Co592   1.962   1_545  S
O573        C579   1.278       .  A
O573       Co590   1.997       .  S
O574        C580   1.293       .  A
O574       Co589   2.026       .  S
O575        C578   1.283       .  A
O575      Co1612   2.053       .  S
O576        C577   1.257       .  A
O576       Co591   1.956   1_545  S
C577        C784   1.507       .  S
C578        C745   1.501       .  S
C579        C756   1.478       .  S
C580        C773   1.479       .  S
O581        C594   1.269       .  A
O581       Co589   1.987       .  S
O582        C595   1.272       .  A
O582       Co590   1.990       .  S
O583        C596   1.298       .  A
O583       Co591   2.039   1_545  S
O584        C597   1.286       .  A
O584      Co1612   2.035       .  S
O585        C597   1.267       .  A
O585       Co590   2.012       .  S
O586        C596   1.265       .  A
O586       Co589   1.993       .  S
O587        C594   1.294       .  A
O587       Co592   2.030   1_545  S
O588        C595   1.287       .  A
O588      Co1611   2.011       .  S
Co589       O593   2.103   1_545  S
Co590      O1613   2.103       .  S
Co591      O1591   2.014       .  S
Co591      O1608   2.011       .  S
Co591       O593   2.103       .  S
Co592      O1595   2.030       .  S
Co592      O1604   2.040       .  S
Co592       O593   2.106       .  S
O593      Co1610   2.105       .  S
C594        C815   1.500       .  S
C595        C938   1.478       .  S
C596        C955   1.513       .  S
C597        C798   1.520       .  S
O598        C606   1.266       .  A
O598       Co618   1.971       .  S
O599        C607   1.273       .  A
O599      Co1639   2.012       .  S
O600        C608   1.292       .  A
O600       Co620   2.022       .  S
O601        C609   1.289       .  A
O601       Co621   2.021       .  S
O602        C608   1.282       .  A
O602       Co619   2.009   1_545  S
O603        C609   1.263       .  A
O603      Co1638   1.964       .  S
O604        C607   1.283       .  A
O604       Co621   1.998       .  S
O605        C606   1.302       .  A
O605       Co620   2.043       .  S
C606        C728   1.502       .  S
C607        C689   1.488       .  S
C608        C714   1.503       .  S
C609        C703   1.488       .  S
O610        C623   1.292       .  A
O610      Co1638   2.025       .  S
O611        C624   1.278       .  A
O611       Co619   1.987   1_545  S
O612        C625   1.260       .  A
O612       Co620   1.975       .  S
O613        C626   1.271       .  A
O613       Co621   2.009       .  S
O614        C626   1.280       .  A
O614      Co1639   1.991       .  S
O615        C625   1.294       .  A
O615       Co618   2.042       .  S
O616        C623   1.256       .  A
O616       Co621   1.941       .  S
O617        C624   1.280       .  A
O617       Co620   2.020       .  S
Co618      O1623   1.965   1_545  S
Co618      O1630   2.050   1_545  S
Co618       O622   2.080       .  S
Co619      O1619   2.043       .  S
Co619      O1634   1.886       .  S
Co619       O622   1.956   1_565  S
Co620       O622   2.058       .  S
Co621      O1642   2.102       .  S
O622      Co1641   2.108   1_545  S
C623        C913   1.489       .  S
C624        C840   1.479       .  S
C625        C927   1.493       .  S
C626        C826   1.486       .  S
O627        C635   1.270       .  A
O627       Co647   1.975       .  S
O628        C636   1.284       .  A
O628       Co648   2.012       .  S
O629        C637   1.268       .  A
O629      Co2689   2.000       .  S
O630        C638   1.280       .  A
O630      Co2690   1.988   1_455  S
O631        C637   1.297       .  A
O631       Co648   2.035       .  S
O632        C638   1.283       .  A
O632       Co647   1.989       .  S
O633        C636   1.262       .  A
O633       Co650   1.970       .  S
O634        C635   1.271       .  A
O634       Co649   1.984   1_455  S
C635       C1008   1.469       .  S
C636        C885   1.511       .  S
C637        C899   1.510       .  S
C638        C997   1.472       .  S
O639        C652   1.252       .  A
O639       Co647   1.952       .  S
O640        C653   1.254       .  A
O640       Co648   1.965       .  S
O641        C654   1.286       .  A
O641       Co649   2.005   1_455  S
O642        C655   1.288       .  A
O642       Co650   2.009       .  S
O643        C655   1.280       .  A
O643       Co648   2.020       .  S
O644        C654   1.283       .  A
O644       Co647   2.020       .  S
O645        C652   1.295       .  A
O645      Co2690   2.053   1_455  S
O646        C653   1.282       .  A
O646      Co2689   2.011       .  S
Co647      O2691   2.022       .  S
Co648       O651   2.117       .  S
Co649      O2669   1.975       .  S
Co649      O2686   2.023       .  S
Co649      O2691   2.020   1_655  S
Co650      O2670   2.015       .  S
Co650      O2685   2.028       .  S
Co650       O651   2.099       .  S
O651      Co2687   2.113       .  S
O651      Co2689   2.098       .  S
C652        C731   1.494       .  S
C653        C770   1.486       .  S
C654        C787   1.480       .  S
C655        C717   1.493       .  S
O656        C664   1.269       .  A
O656       Co676   1.992   1_455  S
O657        C665   1.277       .  A
O657      Co2717   2.010       .  S
O658        C666   1.301       .  A
O658       Co678   2.061       .  S
O659        C667   1.282       .  A
O659       Co679   2.033       .  S
O660        C666   1.255       .  A
O660       Co677   1.967   1_455  S
O661        C667   1.263       .  A
O661      Co2716   1.965       .  S
O662        C665   1.279       .  A
O662       Co679   2.004       .  S
O663        C664   1.301       .  A
O663       Co678   2.044       .  S
C664        C980   1.509       .  S
C665        C857   1.485       .  S
C666        C969   1.508       .  S
C667        C871   1.482       .  S
O668        C681   1.291       .  A
O668      Co2716   2.044       .  S
O669        C682   1.289       .  A
O669       Co677   2.030   1_455  S
O670        C683   1.267       .  A
O670       Co678   1.973       .  S
O671        C684   1.275       .  A
O671       Co679   2.007       .  S
O672        C684   1.276       .  A
O672      Co2717   1.984       .  S
O673        C683   1.285       .  A
O673       Co676   2.012   1_455  S
O674        C681   1.274       .  A
O674       Co679   1.995       .  S
O675        C682   1.271       .  A
O675       Co678   2.002       .  S
Co676      O2701   1.999       .  S
Co676      O2708   2.040       .  S
Co676       O680   2.118       .  S
Co677      O2697   2.034       .  S
Co677      O2712   1.984       .  S
Co677       O680   2.102       .  S
Co678       O680   2.091   1_455  S
Co679      O2720   2.040       .  S
O680      Co2719   2.102       .  S
C681        C742   1.516       .  S
C682        C700   1.497       .  S
C683        C759   1.492       .  S
C684        C686   1.484       .  S
C685        C686   1.405       .  A
C685        C690   1.397       .  A
C685        H692   1.082       .  S
C686        C687   1.404       .  A
C687        C688   1.404       .  A
C687        N694   1.429       .  S
C688        C689   1.415       .  A
C688        H693   1.079       .  S
C689        C690   1.407       .  A
C690        N691   1.425       .  S
N691        O695   1.262       .  A
N691        O696   1.261       .  A
N694       O1718   1.262       .  A
N694        O697   1.262       .  A
O698       N1714   1.262       .  A
C699        C700   1.415       .  A
C699        C704   1.423       .  A
C699        H706   1.066       .  S
C700        C701   1.410       .  A
C701        C702   1.394       .  A
C701        N708   1.427       .  S
C702        C703   1.408       .  A
C702        H707   1.085       .  S
C703        C704   1.392       .  A
C704        N705   1.431       .  S
N705        O709   1.259       .  A
N705        O710   1.260       .  A
N708        O712   1.262       .  A
N708        O711   1.262       .  A
C713        C714   1.418       .  A
C713        C718   1.404       .  A
C713        H720   1.083       .  S
C714        C715   1.403       .  A
C715        C716   1.401       .  A
C715        N722   1.427       .  S
C716        C717   1.407       .  A
C716        H721   1.071       .  S
C717        C718   1.408       .  A
C718        N719   1.430       .  S
N719        O723   1.261       .  A
N719        O724   1.261       .  A
N722        O726   1.261       .  A
N722        O725   1.262       .  A
C727        C728   1.392       .  A
C727        C732   1.405       .  A
C727        H734   1.084       .  S
C728        C729   1.439       .  A
C729        C730   1.404       .  A
C729        N736   1.427       .  S
C730        C731   1.385       .  A
C730        H735   1.085       .  S
C731        C732   1.437       .  A
C732        N733   1.430       .  S
N733        O737   1.261       .  A
N733        O738   1.262       .  A
N736        O740   1.256   1_545  A
N736        O739   1.258       .  A
C741        C742   1.417       .  A
C741        C746   1.397       .  A
C741        H748   1.079       .  S
C742        C743   1.407       .  A
C743        C744   1.416       .  A
C743        N750   1.426       .  S
C744        C745   1.409       .  A
C744        H749   1.065       .  S
C745        C746   1.402       .  A
C746        N747   1.428       .  S
N747        O751   1.262       .  A
N747        O752   1.261       .  A
N750        O754   1.260       .  A
N750        O753   1.261       .  A
C755        C756   1.410       .  A
C755        C760   1.399       .  A
C755        H762   1.081       .  S
C756        C757   1.409       .  A
C757        C758   1.401       .  A
C757        N764   1.445       .  S
C758        C759   1.419       .  A
C758        H763   1.084       .  S
C759        C760   1.405       .  A
C760        N761   1.428       .  S
N761        O765   1.261       .  A
N761        O766   1.262       .  A
N764        O768   1.262       .  A
N764        O767   1.264       .  A
C769        C770   1.389       .  A
C769        C774   1.399       .  A
C769        H776   1.085       .  S
C770        C771   1.432       .  A
C771        C772   1.395       .  A
C771        N778   1.432       .  S
C772        C773   1.390       .  A
C772        H777   1.085       .  S
C773        C774   1.434       .  A
C774        N775   1.433       .  S
N775       O1799   1.262       .  A
N775       O1800   1.261   1_545  A
N778        O782   1.262       .  A
N778        O781   1.263       .  A
O779       N1795   1.262       .  A
O780       N1795   1.262       .  A
C783        C784   1.402       .  A
C783        C788   1.422       .  A
C783        H790   1.080       .  S
C784        C785   1.440       .  A
C785        C786   1.392       .  A
C785        N792   1.434       .  S
C786        C787   1.384       .  A
C786        H791   1.083       .  S
C787        C788   1.408       .  A
C788        N789   1.426       .  S
N789        O793   1.254       .  A
N789        O794   1.262       .  A
N792        O796   1.259       .  A
N792        O795   1.262       .  A
C797        C798   1.427       .  A
C797        C802   1.421       .  A
C797        H804   1.083       .  S
C798        C799   1.407       .  A
C799        C800   1.404       .  A
C799        N806   1.425       .  S
C800        C801   1.406       .  A
C800        H805   1.068       .  S
C801        C802   1.403       .  A
C802        N803   1.428       .  S
N803        O807   1.262       .  A
N803        O808   1.262       .  A
N806        O810   1.261       .  A
N806        O809   1.261       .  A
C811        C812   1.376       .  A
C811        C816   1.390       .  A
C811        H818   1.086       .  S
C812        C813   1.429       .  A
C813        C814   1.413       .  A
C813        N820   1.428       .  S
C814        C815   1.400       .  A
C814        H819   1.084       .  S
C815        C816   1.431       .  A
C816        N817   1.421       .  S
N817        O821   1.262       .  A
N817        O822   1.261       .  A
N820        O824   1.261       .  A
N820        O823   1.262       .  A
C825        C826   1.406       .  A
C825        C830   1.415       .  A
C825        H832   1.084       .  S
C826        C827   1.410       .  A
C827        C828   1.382       .  A
C827        N834   1.415       .  S
C828        C829   1.391       .  A
C828        H833   1.084       .  S
C829        C830   1.419       .  A
C830        N831   1.426       .  S
N831        O835   1.262       .  A
N831        O836   1.261       .  A
N834        O838   1.258       .  A
N834        O837   1.261       .  A
C839        C840   1.403       .  A
C839        C844   1.425       .  A
C839        H846   1.083       .  S
C840        C841   1.402       .  A
C841        C842   1.378       .  A
C841        N848   1.422       .  S
C842        C843   1.396       .  A
C842        H847   1.085       .  S
C843        C844   1.435       .  A
C844        N845   1.444       .  S
N845        O849   1.263   1_556  A
N845        O850   1.259   1_556  A
N848        O852   1.263       .  A
N848        O851   1.261       .  A
C853        C854   1.405       .  A
C853        C858   1.424       .  A
C853        H860   1.083       .  S
C854        C855   1.430       .  A
C855        C856   1.395       .  A
C855        N862   1.426       .  S
C856        C857   1.388       .  A
C856        H861   1.086       .  S
C857        C858   1.415       .  A
C858        N859   1.431       .  S
N859       O2903   1.262       .  A
N859        O864   1.263       .  A
N862        O866   1.262       .  A
N862        O865   1.262       .  A
O863       N2899   1.261   1_455  A
C867        C868   1.394       .  A
C867        C872   1.385       .  A
C867        H874   1.086       .  S
C868        C869   1.422       .  A
C869        C870   1.422       .  A
C869        N876   1.431       .  S
C870        C871   1.405       .  A
C870        H875   1.082       .  S
C871        C872   1.407       .  A
C872        N873   1.418       .  S
N873        O877   1.260       .  A
N873        O878   1.262       .  A
N876        O880   1.261       .  A
N876        O879   1.262       .  A
C881        C882   1.425       .  A
C881        C886   1.422       .  A
C881        H888   1.081       .  S
C882        C883   1.406       .  A
C883        C884   1.394       .  A
C883        N890   1.429       .  S
C884        C885   1.410       .  A
C884        H889   1.081       .  S
C885        C886   1.403       .  A
C886        N887   1.428       .  S
N887        O891   1.262       .  A
N887        O892   1.261       .  A
N890        O894   1.262       .  A
N890        O893   1.262       .  A
C895        C896   1.389       .  A
C895        C900   1.408       .  A
C895        H902   1.085       .  S
C896        C897   1.440       .  A
C897        C898   1.404       .  A
C897        N904   1.434       .  S
C898        C899   1.392       .  A
C898        H903   1.085       .  S
C899        C900   1.440       .  A
C900        N901   1.433       .  S
N901        O905   1.262       .  A
N901        O906   1.260       .  A
N904        O908   1.258       .  A
N904        O907   1.262       .  A
C909        C910   1.378       .  A
C909        C914   1.387       .  A
C909        H916   1.084       .  S
C910        C911   1.433       .  A
C911        C912   1.407       .  A
C911        N918   1.432       .  S
C912        C913   1.394       .  A
C912        H917   1.084       .  S
C913        C914   1.438       .  A
C914        N915   1.435       .  S
N915        O919   1.259       .  A
N915        O920   1.260       .  A
N918        O922   1.262       .  A
C923        C924   1.400       .  A
C923        C928   1.389       .  A
C923        H930   1.084       .  S
C924        C925   1.401       .  A
C925        C926   1.418       .  A
C925        N932   1.429       .  S
C926        C927   1.419       .  A
C926        H931   1.078       .  S
C927        C928   1.410       .  A
C928        N929   1.423       .  S
N929        O933   1.261       .  A
N929        O934   1.262       .  A
N932        O936   1.262       .  A
N932        O935   1.260       .  A
C937        C938   1.404       .  A
C937        C942   1.421       .  A
C937        H944   1.081       .  S
C938        C939   1.412       .  A
C939        C940   1.384       .  A
C939        N946   1.429       .  S
C940        C941   1.396       .  A
C940        H945   1.086       .  S
C941        C942   1.417       .  A
C942        N943   1.433       .  S
N943        O947   1.260       .  A
N943        O948   1.262       .  A
N946        O950   1.260       .  A
N946        O949   1.262       .  A
C951        C952   1.399       .  A
C951        C956   1.407       .  A
C951        H958   1.085       .  S
C952        C953   1.432       .  A
C953        C954   1.419       .  A
C953        N960   1.432       .  S
C954        C955   1.394       .  A
C954        H959   1.083       .  S
C955        C956   1.437       .  A
C956        N957   1.441       .  S
N957        O961   1.260       .  A
N957        O962   1.262       .  A
N960        O964   1.261       .  A
C965        C966   1.399       .  A
C965        C970   1.423       .  A
C965        H972   1.084       .  S
C966        C967   1.448       .  A
C967        C968   1.400       .  A
C967        N974   1.428       .  S
C968        C969   1.381       .  A
C968        H973   1.085       .  S
C969        C970   1.443       .  A
C970        N971   1.431   1_455  S
N971        O975   1.260       .  A
N971        O976   1.261   1_655  A
N974        O978   1.259       .  A
N974        O977   1.260       .  A
C979        C980   1.397       .  A
C979        C984   1.412       .  A
C979        H986   1.084       .  S
C980        C981   1.437       .  A
C981        C982   1.403       .  A
C981        N988   1.432       .  S
C982        C983   1.393       .  A
C982        H987   1.084       .  S
C983        C984   1.430       .  A
C984        N985   1.429       .  S
N985        O989   1.262       .  A
N985        O990   1.261       .  A
N988       O3032   1.261   1_455  A
N988        O991   1.261       .  A
O992       N3028   1.259       .  A
C993        C994   1.400       .  A
C993        C998   1.385       .  A
C993       H1000   1.084       .  S
C994        C995   1.417       .  A
C995        C996   1.409       .  A
C995       N1002   1.426       .  S
C996        C997   1.402       .  A
C996       H1001   1.084       .  S
C997        C998   1.399       .  A
C998        N999   1.415       .  S
N999       O3043   1.261       .  A
N999       O3044   1.256   1_455  A
N1002      O1006   1.261       .  A
N1002      O1005   1.262       .  A
O1003      N3039   1.259       .  A
O1004      N3039   1.255       .  A
C1007      C1008   1.398       .  A
C1007      C1012   1.385       .  A
C1007      H1014   1.082       .  S
C1008      C1009   1.403       .  A
C1009      C1010   1.407       .  A
C1009      N1016   1.431       .  S
C1010      C1011   1.407       .  A
C1010      H1015   1.066       .  S
C1011      C1012   1.403       .  A
C1012      N1013   1.425       .  S
N1013      O1017   1.258       .  A
N1013      O1018   1.262       .  A
N1016      O3060   1.260       .  A
N1016      O3059   1.262       .  A
O1019      N3056   1.262       .  A
O1020      N3056   1.260       .  A
O1021      C1029   1.282       .  A
O1021     Co1041   2.050   1_554  S
O1022      C1030   1.290       .  A
O1022     Co1042   2.049       .  S
O1023      C1031   1.272       .  A
O1023     Co1043   2.019       .  S
O1024      C1032   1.288       .  A
O1024     Co1044   1.940       .  S
O1025      C1031   1.286       .  A
O1025     Co1552   2.012       .  S
O1026      C1032   1.331       .  A
O1026     Co1551   2.167       .  S
O1027      C1030   1.247       .  A
O1027     Co1044   1.955       .  S
O1028      C1029   1.254       .  A
O1028     Co1043   1.955       .  S
C1029      C1521   1.488       .  S
C1030      C1476   1.521       .  S
C1031      C1493   1.506       .  S
C1032      C1504   1.483       .  S
O1033      C1046   1.295       .  A
O1033     Co1551   2.041       .  S
O1034      C1047   1.283       .  A
O1034     Co1552   1.992       .  S
O1035      C1048   1.298       .  A
O1035     Co1043   2.008       .  S
O1036      C1049   1.291       .  A
O1036     Co1044   2.037       .  S
O1037      C1049   1.256       .  A
O1037     Co1042   1.965       .  S
O1038      C1048   1.281       .  A
O1038     Co1041   2.039   1_554  S
O1039      C1046   1.275       .  A
O1039     Co1044   1.970       .  S
O1040      C1047   1.282       .  A
O1040     Co1043   2.001       .  S
Co1041     O1536   2.179       .  S
Co1041     O1543   2.063       .  S
Co1041     O1045   2.032   1_556  S
Co1042     O1535   2.016       .  S
Co1042     O1544   1.983       .  S
Co1042     O1555   2.058       .  S
Co1043     O1045   2.071       .  S
Co1044     O1555   1.970       .  S
O1045     Co1552   2.051       .  S
O1045     Co1554   1.971   1_554  S
C1046      C1434   1.495       .  S
C1047      C1451   1.474       .  S
C1048      C1462   1.522       .  S
C1049      C1420   1.486       .  S
O1050      C1058   1.261       .  A
O1050     Co1070   1.955       .  S
O1051      C1059   1.287       .  A
O1051     Co1071   2.027       .  S
O1052      C1060   1.300       .  A
O1052     Co1582   2.014       .  S
O1053      C1061   1.281       .  A
O1053     Co1583   2.014   1_554  S
O1054      C1060   1.294       .  A
O1054     Co1071   2.071       .  S
O1055      C1061   1.282       .  A
O1055     Co1070   2.012       .  S
O1056      C1059   1.288       .  A
O1056     Co1073   2.035       .  S
O1057      C1058   1.306       .  A
O1057     Co1072   2.062   1_554  S
C1058      C1406   1.509       .  S
C1059      C1364   1.513       .  S
C1060      C1392   1.520       .  S
C1061      C1378   1.493       .  S
O1062      C1075   1.277       .  A
O1062     Co1070   2.015       .  S
O1063      C1076   1.267       .  A
O1063     Co1071   1.990       .  S
O1064      C1077   1.251       .  A
O1064     Co1072   1.952   1_554  S
O1065      C1078   1.281       .  A
O1065     Co1073   1.911       .  S
O1066      C1078   1.340       .  A
O1066     Co1071   2.194       .  S
O1067      C1077   1.290       .  A
O1067     Co1070   2.036       .  S
O1068      C1075   1.264       .  A
O1068     Co1583   2.012   1_554  S
O1069      C1076   1.273       .  A
O1069     Co1582   1.989       .  S
Co1070     O1074   2.041       .  S
Co1071     O1584   2.041       .  S
Co1072     O1562   1.996       .  S
Co1072     O1579   1.990       .  S
Co1072     O1074   2.049   1_556  S
Co1073     O1563   2.040       .  S
Co1073     O1578   2.022       .  S
Co1073     O1584   1.973       .  S
O1074     Co1581   2.050   1_554  S
O1074     Co1583   1.968   1_554  S
C1075      C1311   1.502       .  S
C1076      C1353   1.463       .  S
C1077      C1322   1.476       .  S
C1078      C1339   1.481       .  S
O1079      C1087   1.284       .  A
O1079     Co1099   2.018       .  S
O1080      C1088   1.275       .  A
O1080     Co1100   1.989       .  S
O1081      C1089   1.272       .  A
O1082      C1090   1.257       .  A
O1082     Co1102   1.961       .  S
O1083      C1089   1.272       .  A
O1083     Co1100   1.988       .  S
O1084      C1090   1.291       .  A
O1084     Co1099   2.021       .  S
O1085      C1088   1.284       .  A
O1086      C1087   1.276       .  A
O1086     Co1101   2.029       .  S
C1087      C1294   1.504       .  S
C1088      C1255   1.502       .  S
C1089      C1266   1.477       .  S
C1090      C1283   1.486       .  S
O1091      C1104   1.260       .  A
O1091     Co1099   1.950       .  S
O1092      C1105   1.273       .  A
O1092     Co1100   1.996       .  S
O1093      C1106   1.286       .  A
O1093     Co1101   2.028       .  S
O1094      C1107   1.285       .  A
O1095      C1107   1.266       .  A
O1095     Co1100   2.012       .  S
O1096      C1106   1.271       .  A
O1096     Co1099   2.019       .  S
O1097      C1104   1.292       .  A
O1097     Co1102   2.027       .  S
O1098      C1105   1.287       .  A
Co1099     O1103   2.104       .  S
Co1101     O1103   2.104       .  S
Co1102     O1103   2.113       .  S
C1104      C1325   1.497       .  S
C1105      C1448   1.486       .  S
C1106      C1465   1.518       .  S
C1107      C1308   1.521       .  S
O1108      C1116   1.261       .  A
O1108     Co1128   1.969       .  S
O1109      C1117   1.253       .  A
O1110      C1118   1.286       .  A
O1110     Co1130   2.037       .  S
O1111      C1119   1.279       .  A
O1111     Co1131   2.003       .  S
O1112      C1118   1.264       .  A
O1112     Co1129   1.966       .  S
O1113      C1119   1.267       .  A
O1114      C1117   1.253       .  A
O1114     Co1131   1.981       .  S
O1115      C1116   1.291       .  A
O1115     Co1130   2.022       .  S
C1116      C1238   1.488       .  S
C1117      C1199   1.491       .  S
C1118      C1224   1.508       .  S
C1119      C1213   1.476       .  S
O1120      C1133   1.293       .  A
O1121      C1134   1.282       .  A
O1121     Co1129   2.002       .  S
O1122      C1135   1.268       .  A
O1122     Co1130   1.998       .  S
O1123      C1136   1.312       .  A
O1123     Co1131   2.133       .  S
O1124      C1136   1.287       .  A
O1125      C1135   1.299       .  A
O1125     Co1128   2.042       .  S
O1126      C1133   1.246       .  A
O1126     Co1131   1.921       .  S
O1127      C1134   1.271       .  A
O1127     Co1130   1.993       .  S
Co1128     O1132   2.101       .  S
Co1129     O1132   2.100       .  S
Co1130     O1132   2.107       .  S
C1133      C1423   1.506       .  S
C1134      C1350   1.477       .  S
C1135      C1437   1.503       .  S
C1136      C1336   1.481       .  S
O1137      C1145   1.264       .  A
O1137     Co1157   1.977       .  S
O1138      C1146   1.281       .  A
O1138     Co1158   2.015       .  S
O1139      C1147   1.268       .  A
O1139     Co3199   1.998       .  S
O1140      C1148   1.276       .  A
O1140     Co3200   2.014       .  S
O1141      C1147   1.301       .  A
O1141     Co1158   2.046       .  S
O1142      C1148   1.272       .  A
O1142     Co1157   1.968       .  S
O1143      C1146   1.269       .  A
O1143     Co1160   2.007       .  S
O1144      C1145   1.270       .  A
O1144     Co1159   1.982   1_455  S
C1145      C1518   1.467       .  S
C1146      C1395   1.524       .  S
C1147      C1409   1.516       .  S
C1148      C1507   1.482       .  S
O1149      C1162   1.253       .  A
O1149     Co1157   1.975       .  S
O1150      C1163   1.250       .  A
O1150     Co1158   1.951       .  S
O1151      C1164   1.288       .  A
O1151     Co1159   2.031   1_455  S
O1152      C1165   1.279       .  A
O1152     Co1160   1.997       .  S
O1153      C1165   1.286       .  A
O1153     Co1158   2.052       .  S
O1154      C1164   1.280       .  A
O1154     Co1157   2.025       .  S
O1155      C1162   1.283       .  A
O1155     Co3200   2.019       .  S
O1156      C1163   1.283       .  A
O1156     Co3199   2.016       .  S
Co1157     O3201   2.113   1_455  S
Co1158     O1161   2.117       .  S
Co1159     O3179   1.988       .  S
Co1159     O3196   2.029       .  S
Co1159     O3201   2.106       .  S
Co1160     O3180   2.020       .  S
Co1160     O3195   2.018       .  S
Co1160     O1161   2.100       .  S
O1161     Co3197   2.120       .  S
O1161     Co3199   2.103       .  S
C1162      C1241   1.482       .  S
C1163      C1280   1.473       .  S
C1164      C1297   1.511       .  S
C1165      C1227   1.491       .  S
O1166      C1174   1.266       .  A
O1166     Co1186   1.985   1_455  S
O1167      C1175   1.278       .  A
O1167     Co3227   2.009       .  S
O1168      C1176   1.300       .  A
O1168     Co1188   2.054       .  S
O1169      C1177   1.279       .  A
O1169     Co1189   2.026       .  S
O1170      C1176   1.255       .  A
O1170     Co1187   1.961   1_455  S
O1171      C1177   1.267       .  A
O1171     Co3226   1.989       .  S
O1172      C1175   1.277       .  A
O1172     Co1189   2.003       .  S
O1173      C1174   1.300       .  A
O1173     Co1188   2.042       .  S
C1174      C1490   1.509       .  S
C1175      C1367   1.482       .  S
C1176      C1479   1.500       .  S
C1177      C1381   1.489       .  S
O1178      C1191   1.291       .  A
O1178     Co3226   2.046       .  S
O1179      C1192   1.290       .  A
O1179     Co1187   2.035   1_455  S
O1180      C1193   1.266       .  A
O1180     Co1188   1.969       .  S
O1181      C1194   1.273       .  A
O1181     Co1189   2.009       .  S
O1182      C1194   1.275       .  A
O1182     Co3227   1.979       .  S
O1183      C1193   1.285       .  A
O1183     Co1186   2.011   1_455  S
O1184      C1191   1.277       .  A
O1184     Co1189   2.005       .  S
O1185      C1192   1.269       .  A
O1185     Co1188   1.996       .  S
Co1186     O3211   2.001       .  S
Co1186     O3218   2.037       .  S
Co1186     O1190   2.115       .  S
Co1187     O3207   2.040       .  S
Co1187     O3222   1.987       .  S
Co1187     O1190   2.105       .  S
Co1188     O1190   2.094   1_455  S
Co1189     O3230   2.038       .  S
O1190     Co3229   2.099       .  S
C1191      C1252   1.521       .  S
C1192      C1210   1.497       .  S
C1193      C1269   1.484       .  S
C1194      C1196   1.483       .  S
C1195      C1196   1.406       .  A
C1195      C1200   1.400       .  A
C1195      H1202   1.082       .  S
C1196      C1197   1.402       .  A
C1197      C1198   1.400       .  A
C1197      N1204   1.430       .  S
C1198      C1199   1.414       .  A
C1198      H1203   1.074       .  S
C1199      C1200   1.408       .  A
C1200      N1201   1.425       .  S
N1201      O1205   1.262       .  A
N1201      O1206   1.261       .  A
N1204      O1207   1.262       .  A
C1209      C1210   1.419       .  A
C1209      C1214   1.426       .  A
C1209      H1216   1.071       .  S
C1210      C1211   1.412       .  A
C1211      C1212   1.389       .  A
C1211      N1218   1.425       .  S
C1212      C1213   1.400       .  A
C1212      H1217   1.085       .  S
C1213      C1214   1.396       .  A
C1214      N1215   1.437       .  S
N1215      O1219   1.258       .  A
N1215      O1220   1.257   1_565  A
N1218      O1222   1.262       .  A
N1218      O1221   1.262       .  A
C1223      C1224   1.416       .  A
C1223      C1228   1.387       .  A
C1223      H1230   1.081       .  S
C1224      C1225   1.418       .  A
C1225      C1226   1.426       .  A
C1225      N1232   1.433       .  S
C1226      C1227   1.408       .  A
C1226      H1231   1.075       .  S
C1227      C1228   1.392       .  A
C1228      N1229   1.426       .  S
N1229      O1233   1.257       .  A
N1229      O1234   1.262       .  A
N1232      O1236   1.261       .  A
N1232      O1235   1.261       .  A
C1237      C1238   1.393       .  A
C1237      C1242   1.402       .  A
C1237      H1244   1.085       .  S
C1238      C1239   1.431       .  A
C1239      C1240   1.396       .  A
C1239      N1246   1.426       .  S
C1240      C1241   1.386       .  A
C1240      H1245   1.085       .  S
C1241      C1242   1.430       .  A
C1242      N1243   1.428       .  S
N1243      O1247   1.259       .  A
N1243      O1248   1.261       .  A
N1246      O1250   1.257       .  A
N1246      O1249   1.259       .  A
C1251      C1252   1.416       .  A
C1251      C1256   1.398       .  A
C1251      H1258   1.079       .  S
C1252      C1253   1.411       .  A
C1253      C1254   1.417       .  A
C1253      N1260   1.425       .  S
C1254      C1255   1.408       .  A
C1254      H1259   1.071   1_565  S
C1255      C1256   1.403       .  A
C1256      N1257   1.430       .  S
N1257      O1261   1.262       .  A
N1257      O1262   1.261       .  A
N1260      O1264   1.261   1_565  A
N1260      O1263   1.261       .  A
C1265      C1266   1.410       .  A
C1265      C1270   1.396       .  A
C1265      H1272   1.082       .  S
C1266      C1267   1.415       .  A
C1267      C1268   1.396       .  A
C1267      N1274   1.442       .  S
C1268      C1269   1.418       .  A
C1268      H1273   1.085       .  S
C1269      C1270   1.403       .  A
C1270      N1271   1.428       .  S
N1271      O1275   1.261       .  A
N1271      O1276   1.262       .  A
N1274      O1278   1.258       .  A
N1274      O1277   1.261       .  A
C1279      C1280   1.386       .  A
C1279      C1284   1.394       .  A
C1279      H1286   1.085       .  S
C1280      C1281   1.430       .  A
C1281      C1282   1.398       .  A
C1281      N1288   1.433       .  S
C1282      C1283   1.392       .  A
C1282      H1287   1.084       .  S
C1283      C1284   1.438       .  A
C1284      N1285   1.438       .  S
N1288      O1292   1.261       .  A
N1288      O1291   1.262       .  A
C1293      C1294   1.409       .  A
C1293      C1298   1.426       .  A
C1293      H1300   1.077       .  S
C1294      C1295   1.405       .  A
C1295      C1296   1.393       .  A
C1295      N1302   1.420       .  S
C1296      C1297   1.402       .  A
C1296      H1301   1.081       .  S
C1297      C1298   1.418       .  A
C1298      N1299   1.425       .  S
N1299      O1303   1.256       .  A
N1299      O1304   1.259       .  A
N1302      O1306   1.262       .  A
N1302      O1305   1.259       .  A
C1307      C1308   1.428       .  A
C1307      C1312   1.421       .  A
C1307      H1314   1.083       .  S
C1308      C1309   1.410       .  A
C1309      C1310   1.404       .  A
C1309      N1316   1.425       .  S
C1310      C1311   1.403       .  A
C1310      H1315   1.070       .  S
C1311      C1312   1.403       .  A
C1312      N1313   1.428       .  S
N1313      O1317   1.262       .  A
N1313      O1318   1.262       .  A
N1316      O1320   1.262   1_554  A
N1316      O1319   1.261       .  A
C1321      C1322   1.378       .  A
C1321      C1326   1.387       .  A
C1321      H1328   1.086       .  S
C1322      C1323   1.435       .  A
C1323      C1324   1.417       .  A
C1323      N1330   1.440       .  S
C1324      C1325   1.397       .  A
C1324      H1329   1.083       .  S
C1325      C1326   1.438       .  A
C1326      N1327   1.432       .  S
N1327      O1331   1.261       .  A
N1327      O1332   1.261       .  A
N1330      O1334   1.261   1_554  A
N1330      O1333   1.261       .  A
C1335      C1336   1.404       .  A
C1335      C1340   1.408       .  A
C1335      H1342   1.084       .  S
C1336      C1337   1.406       .  A
C1337      C1338   1.376       .  A
C1337      N1344   1.413       .  S
C1338      C1339   1.393       .  A
C1338      H1343   1.085       .  S
C1339      C1340   1.416       .  A
C1340      N1341   1.425       .  S
N1341      O1345   1.262       .  A
N1341      O1346   1.262       .  A
N1344      O1348   1.257       .  A
N1344      O1347   1.261       .  A
C1349      C1350   1.406       .  A
C1349      C1354   1.419       .  A
C1349      H1356   1.083       .  S
C1350      C1351   1.419       .  A
C1351      C1352   1.375       .  A
C1351      N1358   1.427       .  S
C1352      C1353   1.384       .  A
C1352      H1357   1.087       .  S
C1353      C1354   1.423       .  A
C1354      N1355   1.443       .  S
N1355      O1359   1.263       .  A
N1355      O1360   1.261       .  A
N1358      O1362   1.261       .  A
N1358      O1361   1.262       .  A
C1363      C1364   1.407       .  A
C1363      C1368   1.428       .  A
C1363      H1370   1.082       .  S
C1364      C1365   1.435       .  A
C1365      C1366   1.389       .  A
C1365      N1372   1.426       .  S
C1366      C1367   1.380       .  A
C1366      H1371   1.087       .  S
C1367      C1368   1.417       .  A
C1368      N1369   1.432       .  S
N1369      O3413   1.262       .  A
N1369      O1374   1.263       .  A
N1372      O1376   1.262       .  A
N1372      O1375   1.262       .  A
O1373      N3409   1.262   1_455  A
C1377      C1378   1.398       .  A
C1377      C1382   1.389       .  A
C1377      H1384   1.086       .  S
C1378      C1379   1.422       .  A
C1379      C1380   1.420       .  A
C1379      N1386   1.426       .  S
C1380      C1381   1.406       .  A
C1380      H1385   1.082       .  S
C1381      C1382   1.404       .  A
C1382      N1383   1.414       .  S
N1383      O1387   1.259       .  A
N1383      O1388   1.263       .  A
N1386      O1390   1.260       .  A
N1386      O1389   1.261       .  A
C1391      C1392   1.425       .  A
C1391      C1396   1.429       .  A
C1391      H1398   1.080       .  S
C1392      C1393   1.409       .  A
C1393      C1394   1.399       .  A
C1393      N1400   1.428       .  S
C1394      C1395   1.406       .  A
C1394      H1399   1.075       .  S
C1395      C1396   1.409       .  A
C1396      N1397   1.427       .  S
N1397      O1401   1.262       .  A
N1397      O1402   1.261       .  A
N1400      O1404   1.262       .  A
N1400      O1403   1.262       .  A
C1405      C1406   1.392       .  A
C1405      C1410   1.412       .  A
C1405      H1412   1.085       .  S
C1406      C1407   1.442       .  A
C1407      C1408   1.407       .  A
C1407      N1414   1.433       .  S
C1408      C1409   1.390       .  A
C1408      H1413   1.084       .  S
C1409      C1410   1.440       .  A
C1410      N1411   1.431       .  S
N1411      O1415   1.262       .  A
N1411      O1416   1.260       .  A
N1414      O1418   1.259       .  A
N1414      O1417   1.263       .  A
C1419      C1420   1.379       .  A
C1419      C1424   1.390       .  A
C1419      H1426   1.085       .  S
C1420      C1421   1.436       .  A
C1421      C1422   1.412       .  A
C1421      N1428   1.430       .  S
C1422      C1423   1.394       .  A
C1422      H1427   1.084       .  S
C1423      C1424   1.446       .  A
C1424      N1425   1.436       .  S
N1425      O1429   1.259       .  A
N1425      O1430   1.260       .  A
N1428      O1432   1.262       .  A
N1428      O1941   1.259       .  A
O1431      N1938   1.260   1_554  A
C1433      C1434   1.405       .  A
C1433      C1438   1.394       .  A
C1433      H1440   1.083       .  S
C1434      C1435   1.403       .  A
C1435      C1436   1.420       .  A
C1435      N1442   1.431       .  S
C1436      C1437   1.422       .  A
C1436      H1441   1.076       .  S
C1437      C1438   1.407       .  A
C1438      N1439   1.427       .  S
N1439      O1443   1.260       .  A
N1439      O1444   1.262       .  A
N1442      O1446   1.262       .  A
N1442      O1445   1.260       .  A
C1447      C1448   1.407       .  A
C1447      C1452   1.424       .  A
C1447      H1454   1.080       .  S
C1448      C1449   1.411       .  A
C1449      C1450   1.381       .  A
C1449      N1456   1.424       .  S
C1450      C1451   1.389       .  A
C1450      H1455   1.086       .  S
C1451      C1452   1.417       .  A
C1452      N1453   1.435       .  S
N1453      O1457   1.261   1_554  A
N1453      O1458   1.262       .  A
N1456      O1460   1.255       .  A
N1456      O1459   1.262       .  A
C1461      C1462   1.391       .  A
C1461      C1466   1.396       .  A
C1461      H1468   1.084       .  S
C1462      C1463   1.448       .  A
C1463      C1464   1.430       .  A
C1463      N1470   1.450       .  S
C1464      C1465   1.405       .  A
C1464      H1469   1.083       .  S
C1465      C1466   1.421       .  A
C1466      N1467   1.422       .  S
N1467      O1471   1.257       .  A
N1467      O1472   1.260       .  A
N1470      O1474   1.260       .  A
N1470      O1983   1.262       .  A
O1473      N1980   1.261       .  A
C1475      C1476   1.396       .  A
C1475      C1480   1.418       .  A
C1475      H1482   1.084       .  S
C1476      C1477   1.447       .  A
C1477      C1478   1.399       .  A
C1477      N1484   1.432       .  S
C1478      C1479   1.382       .  A
C1478      H1483   1.085       .  S
C1479      C1480   1.443       .  A
C1480      N1481   1.431       .  S
N1481      O1485   1.260   1_455  A
N1481      O1486   1.261       .  A
N1484      O1488   1.261       .  A
N1484      O1487   1.261       .  A
C1489      C1490   1.398       .  A
C1489      C1494   1.413       .  A
C1489      H1496   1.084       .  S
C1490      C1491   1.435       .  A
C1491      C1492   1.403       .  A
C1491      N1498   1.433       .  S
C1492      C1493   1.395       .  A
C1492      H1497   1.084       .  S
C1493      C1494   1.428       .  A
C1494      N1495   1.428       .  S
N1495      O1499   1.262       .  A
N1495      O1500   1.262       .  A
N1498      O3542   1.261   1_455  A
N1498      O1501   1.261       .  A
O1502      N3538   1.261       .  A
C1503      C1504   1.393       .  A
C1503      C1508   1.374       .  A
C1503      H1510   1.085       .  S
C1504      C1505   1.419       .  A
C1505      C1506   1.417       .  A
C1505      N1512   1.426       .  S
C1506      C1507   1.405       .  A
C1506      H1511   1.081       .  S
C1507      C1508   1.392       .  A
C1508      N1509   1.399       .  S
N1509      O3553   1.260       .  A
N1509      O3554   1.253   1_455  A
N1512      O1516   1.261       .  A
N1512      O1515   1.262       .  A
O1513      N3549   1.258       .  A
O1514      N3549   1.256       .  A
C1517      C1518   1.382       .  A
C1517      C1522   1.373       .  A
C1517      H1524   1.081       .  S
C1518      C1519   1.400       .  A
C1519      C1520   1.422       .  A
C1519      N1526   1.430       .  S
C1520      C1521   1.417       .  A
C1520      H1525   1.071       .  S
C1521      C1522   1.413       .  A
C1522      N1523   1.421       .  S
N1523      O1527   1.260       .  A
N1523      O1528   1.263       .  A
N1526      O3570   1.258       .  A
N1526      O3569   1.261       .  A
O1529      N3566   1.262       .  A
O1530      N3566   1.260       .  A
O1531      C1539   1.274       .  A
O1531     Co1551   2.017       .  S
O1532      C1540   1.292       .  A
O1532     Co1552   2.052   1_556  S
O1533      C1541   1.269       .  A
O1533     Co1553   2.010       .  S
O1534      C1542   1.287       .  A
O1534     Co1554   1.932       .  S
O1535      C1541   1.287       .  A
O1536      C1542   1.334       .  A
O1537      C1540   1.249       .  A
O1537     Co1554   1.964       .  S
O1538      C1539   1.263       .  A
O1538     Co1553   1.986       .  S
C1539      C2031   1.479       .  S
C1540      C1986   1.526       .  S
C1541      C2003   1.506       .  S
C1542      C2014   1.488       .  S
O1543      C1556   1.299       .  A
O1544      C1557   1.281       .  A
O1545      C1558   1.291       .  A
O1545     Co1553   2.002       .  S
O1546      C1559   1.291       .  A
O1546     Co1554   2.046       .  S
O1547      C1559   1.252       .  A
O1547     Co1552   1.956   1_556  S
O1548      C1558   1.286       .  A
O1548     Co1551   2.051       .  S
O1549      C1556   1.275       .  A
O1549     Co1554   1.960       .  S
O1550      C1557   1.283       .  A
O1550     Co1553   2.004       .  S
Co1551     O1555   2.032       .  S
Co1553     O1555   2.070       .  S
C1556      C1944   1.490       .  S
C1557      C1961   1.473       .  S
C1558      C1972   1.508       .  S
C1559      C1930   1.488       .  S
O1560      C1568   1.259       .  A
O1560     Co1580   1.938       .  S
O1561      C1569   1.289       .  A
O1561     Co1581   2.042       .  S
O1562      C1570   1.296       .  A
O1563      C1571   1.289       .  A
O1564      C1570   1.295       .  A
O1564     Co1581   2.072       .  S
O1565      C1571   1.274       .  A
O1565     Co1580   2.009       .  S
O1566      C1569   1.285       .  A
O1566     Co1583   2.021       .  S
O1567      C1568   1.308       .  A
O1567     Co1582   2.059       .  S
C1568      C1916   1.508       .  S
C1569      C1874   1.505       .  S
C1570      C1902   1.509       .  S
C1571      C1888   1.514       .  S
O1572      C1585   1.276       .  A
O1572     Co1580   2.009       .  S
O1573      C1586   1.266       .  A
O1573     Co1581   1.987       .  S
O1574      C1587   1.252       .  A
O1574     Co1582   1.959       .  S
O1575      C1588   1.280       .  A
O1575     Co1583   1.913       .  S
O1576      C1588   1.338       .  A
O1576     Co1581   2.189       .  S
O1577      C1587   1.291       .  A
O1577     Co1580   2.018       .  S
O1578      C1585   1.266       .  A
O1579      C1586   1.274       .  A
Co1580     O1584   2.035       .  S
Co1582     O1584   2.065       .  S
C1585      C1821   1.500       .  S
C1586      C1863   1.464       .  S
C1587      C1832   1.477       .  S
C1588      C1849   1.485       .  S
O1589      C1597   1.299       .  A
O1589     Co1609   2.051       .  S
O1590      C1598   1.280       .  A
O1590     Co1610   2.017       .  S
O1591      C1599   1.274       .  A
O1592      C1600   1.252       .  A
O1592     Co1612   1.944       .  S
O1593      C1599   1.282       .  A
O1593     Co1610   2.005       .  S
O1594      C1600   1.295       .  A
O1594     Co1609   2.030       .  S
O1595      C1598   1.281       .  A
O1596      C1597   1.262       .  A
O1596     Co1611   1.967       .  S
C1597      C1804   1.510       .  S
C1598      C1765   1.508       .  S
C1599      C1776   1.493       .  S
C1600      C1793   1.480       .  S
O1601      C1614   1.267       .  A
O1601     Co1609   1.975       .  S
O1602      C1615   1.270       .  A
O1602     Co1610   1.985       .  S
O1603      C1616   1.296       .  A
O1603     Co1611   2.041       .  S
O1604      C1617   1.289       .  A
O1605      C1617   1.271       .  A
O1605     Co1610   2.017       .  S
O1606      C1616   1.261       .  A
O1606     Co1609   1.980       .  S
O1607      C1614   1.297       .  A
O1607     Co1612   2.032       .  S
O1608      C1615   1.284       .  A
Co1609     O1613   2.104       .  S
Co1611     O1613   2.100       .  S
Co1612     O1613   2.107       .  S
C1614      C1835   1.496       .  S
C1615      C1958   1.479       .  S
C1616      C1975   1.507       .  S
C1617      C1818   1.522       .  S
O1618      C1626   1.264       .  A
O1618     Co1638   1.981       .  S
O1619      C1627   1.252       .  A
O1620      C1628   1.291       .  A
O1620     Co1640   2.049       .  S
O1621      C1629   1.279       .  A
O1621     Co1641   2.005       .  S
O1622      C1628   1.264       .  A
O1622     Co1639   1.970       .  S
O1623      C1629   1.266       .  A
O1624      C1627   1.253       .  A
O1624     Co1641   1.996       .  S
O1625      C1626   1.290       .  A
O1625     Co1640   2.017       .  S
C1626      C1748   1.491       .  S
C1627      C1709   1.504       .  S
C1628      C1734   1.509       .  S
C1629      C1723   1.473       .  S
O1630      C1643   1.294       .  A
O1631      C1644   1.284       .  A
O1631     Co1639   2.016       .  S
O1632      C1645   1.272       .  A
O1632     Co1640   2.007       .  S
O1633      C1646   1.315       .  A
O1633     Co1641   2.149       .  S
O1634      C1646   1.287       .  A
O1635      C1645   1.291       .  A
O1635     Co1638   2.019       .  S
O1636      C1643   1.247       .  A
O1636     Co1641   1.922       .  S
O1637      C1644   1.269       .  A
O1637     Co1640   1.977       .  S
Co1638     O1642   2.105       .  S
Co1639     O1642   2.094       .  S
Co1640     O1642   2.097       .  S
C1643      C1933   1.506       .  S
C1644      C1860   1.477       .  S
C1645      C1947   1.497       .  S
C1646      C1846   1.486       .  S
O1647      C1655   1.269       .  A
O1647     Co1667   1.983       .  S
O1648      C1656   1.278       .  A
O1648     Co1668   1.998       .  S
O1649      C1657   1.261       .  A
O1649     Co3709   1.977       .  S
O1650      C1658   1.276       .  A
O1650     Co3710   2.011       .  S
O1651      C1657   1.300       .  A
O1651     Co1668   2.043       .  S
O1652      C1658   1.278       .  A
O1652     Co1667   1.983       .  S
O1653      C1656   1.271       .  A
O1653     Co1670   2.006       .  S
O1654      C1655   1.265       .  A
O1654     Co1669   1.989   1_455  S
C1655      C2028   1.477       .  S
C1656      C1905   1.515       .  S
C1657      C1919   1.497       .  S
C1658      C2017   1.488       .  S
O1659      C1672   1.251       .  A
O1659     Co1667   1.968       .  S
O1660      C1673   1.246       .  A
O1660     Co1668   1.925       .  S
O1661      C1674   1.282       .  A
O1661     Co1669   2.002   1_455  S
O1662      C1675   1.281       .  A
O1662     Co1670   2.004       .  S
O1663      C1675   1.284       .  A
O1663     Co1668   2.053       .  S
O1664      C1674   1.279       .  A
O1664     Co1667   2.030       .  S
O1665      C1672   1.282       .  A
O1665     Co3710   2.020       .  S
O1666      C1673   1.290       .  A
O1666     Co3709   2.027       .  S
Co1667     O3711   2.118       .  S
Co1668     O1671   2.115       .  S
Co1669     O3689   1.989       .  S
Co1669     O3706   2.014       .  S
Co1669     O3711   2.102   1_655  S
Co1670     O3690   2.007       .  S
Co1670     O3705   2.022       .  S
Co1670     O1671   2.097       .  S
O1671     Co3707   2.115       .  S
O1671     Co3709   2.099       .  S
C1672      C1751   1.480       .  S
C1673      C1790   1.472       .  S
C1674      C1807   1.486       .  S
C1675      C1737   1.498       .  S
O1676      C1684   1.269       .  A
O1676     Co1696   1.990   1_455  S
O1677      C1685   1.281       .  A
O1677     Co3737   2.026       .  S
O1678      C1686   1.301       .  A
O1678     Co1698   2.059       .  S
O1679      C1687   1.276       .  A
O1679     Co1699   2.002       .  S
O1680      C1686   1.255       .  A
O1680     Co1697   1.963   1_455  S
O1681      C1687   1.266       .  A
O1681     Co3736   1.993       .  S
O1682      C1685   1.277       .  A
O1682     Co1699   2.005       .  S
O1683      C1684   1.299       .  A
O1683     Co1698   2.036       .  S
C1684      C2000   1.507       .  S
C1685      C1877   1.489       .  S
C1686      C1989   1.505       .  S
C1687      C1891   1.483       .  S
O1688      C1701   1.282       .  A
O1688     Co3736   2.017       .  S
O1689      C1702   1.290       .  A
O1689     Co1697   2.028   1_455  S
O1690      C1703   1.269       .  A
O1690     Co1698   1.985       .  S
O1691      C1704   1.267       .  A
O1691     Co1699   1.996       .  S
O1692      C1704   1.278       .  A
O1692     Co3737   1.989       .  S
O1693      C1703   1.288       .  A
O1693     Co1696   2.026   1_455  S
O1694      C1701   1.278       .  A
O1694     Co1699   2.039       .  S
O1695      C1702   1.267       .  A
O1695     Co1698   1.979       .  S
Co1696     O3721   1.999       .  S
Co1696     O3728   2.044       .  S
Co1696     O1700   2.115       .  S
Co1697     O3717   2.032       .  S
Co1697     O3732   1.992       .  S
Co1697     O1700   2.102       .  S
Co1698     O1700   2.095   1_455  S
Co1699     O3740   2.108       .  S
O1700     Co3739   2.103       .  S
C1701      C1762   1.505       .  S
C1702      C1720   1.484       .  S
C1703      C1779   1.505       .  S
C1704      C1706   1.483       .  S
C1705      C1706   1.408       .  A
C1705      C1710   1.407       .  A
C1705      H1712   1.084       .  S
C1706      C1707   1.396       .  A
C1707      C1708   1.400       .  A
C1707      N1714   1.428       .  S
C1708      C1709   1.415       .  A
C1708      H1713   1.068       .  S
C1709      C1710   1.415       .  A
C1710      N1711   1.426       .  S
N1711      O1715   1.262       .  A
N1711      O1716   1.262       .  A
N1714      O1717   1.262       .  A
C1719      C1720   1.415       .  A
C1719      C1724   1.421       .  A
C1719      H1726   1.071       .  S
C1720      C1721   1.414       .  A
C1721      C1722   1.387       .  A
C1721      N1728   1.423       .  S
C1722      C1723   1.398       .  A
C1722      H1727   1.085       .  S
C1723      C1724   1.394       .  A
C1724      N1725   1.432       .  S
N1725      O1729   1.259       .  A
N1725      O1730   1.259       .  A
N1728      O1732   1.261       .  A
N1728      O1731   1.261       .  A
C1733      C1734   1.416       .  A
C1733      C1738   1.396       .  A
C1733      H1740   1.081       .  S
C1734      C1735   1.406       .  A
C1735      C1736   1.416       .  A
C1735      N1742   1.424       .  S
C1736      C1737   1.408       .  A
C1736      H1741   1.070       .  S
C1737      C1738   1.401       .  A
C1738      N1739   1.426       .  S
N1739      O1743   1.257       .  A
N1739      O1744   1.262       .  A
N1742      O1746   1.261       .  A
N1742      O1745   1.260       .  A
C1747      C1748   1.394       .  A
C1747      C1752   1.402       .  A
C1747      H1754   1.084       .  S
C1748      C1749   1.433       .  A
C1749      C1750   1.397       .  A
C1749      N1756   1.427       .  S
C1750      C1751   1.388       .  A
C1750      H1755   1.085       .  S
C1751      C1752   1.430       .  A
C1752      N1753   1.430       .  S
N1753      O1757   1.261       .  A
N1753      O1758   1.262       .  A
N1756      O1760   1.259       .  A
N1756      O1759   1.260       .  A
C1761      C1762   1.410       .  A
C1761      C1766   1.429       .  A
C1761      H1768   1.082       .  S
C1762      C1763   1.411       .  A
C1763      C1764   1.397       .  A
C1763      N1770   1.426       .  S
C1764      C1765   1.402       .  A
C1764      H1769   1.086       .  S
C1765      C1766   1.428       .  A
C1766      N1767   1.437       .  S
N1767      O1771   1.261       .  A
N1767      O1772   1.263   1_565  A
N1770      O1774   1.262       .  A
N1770      O1773   1.260       .  A
C1775      C1776   1.412       .  A
C1775      C1780   1.406       .  A
C1775      H1782   1.082       .  S
C1776      C1777   1.413       .  A
C1777      C1778   1.407       .  A
C1777      N1784   1.445       .  S
C1778      C1779   1.419       .  A
C1778      H1783   1.084       .  S
C1779      C1780   1.408       .  A
C1780      N1781   1.428       .  S
N1781      O1785   1.261       .  A
N1781      O1786   1.262       .  A
N1784      O1788   1.262       .  A
N1784      O1787   1.264       .  A
C1789      C1790   1.383       .  A
C1789      C1794   1.393       .  A
C1789      H1796   1.085       .  S
C1790      C1791   1.436       .  A
C1791      C1792   1.394       .  A
C1791      N1798   1.433       .  S
C1792      C1793   1.385       .  A
C1792      H1797   1.084       .  S
C1793      C1794   1.438       .  A
C1794      N1795   1.431       .  S
N1798      O1802   1.261       .  A
N1798      O1801   1.262       .  A
C1803      C1804   1.402       .  A
C1803      C1808   1.423       .  A
C1803      H1810   1.078       .  S
C1804      C1805   1.439       .  A
C1805      C1806   1.395       .  A
C1805      N1812   1.434       .  S
C1806      C1807   1.387       .  A
C1806      H1811   1.083       .  S
C1807      C1808   1.408       .  A
C1808      N1809   1.425       .  S
N1809      O1813   1.254       .  A
N1809      O1814   1.262       .  A
N1812      O1816   1.259       .  A
N1812      O1815   1.262       .  A
C1817      C1818   1.426       .  A
C1817      C1822   1.416       .  A
C1817      H1824   1.083       .  S
C1818      C1819   1.412       .  A
C1819      C1820   1.408       .  A
C1819      N1826   1.425       .  S
C1820      C1821   1.405       .  A
C1820      H1825   1.072       .  S
C1821      C1822   1.402       .  A
C1822      N1823   1.429       .  S
N1823      O1827   1.262       .  A
N1823      O1828   1.262       .  A
N1826      O1830   1.262       .  A
N1826      O1829   1.261       .  A
C1831      C1832   1.368       .  A
C1831      C1836   1.383       .  A
C1831      H1838   1.087       .  S
C1832      C1833   1.428       .  A
C1833      C1834   1.413       .  A
C1833      N1840   1.429       .  S
C1834      C1835   1.401       .  A
C1834      H1839   1.084       .  S
C1835      C1836   1.435       .  A
C1836      N1837   1.421       .  S
N1837      O1841   1.262       .  A
N1837      O1842   1.262       .  A
N1840      O1844   1.261       .  A
N1840      O1843   1.262       .  A
C1845      C1846   1.407       .  A
C1845      C1850   1.410       .  A
C1845      H1852   1.084       .  S
C1846      C1847   1.406       .  A
C1847      C1848   1.380       .  A
C1847      N1854   1.413       .  S
C1848      C1849   1.393       .  A
C1848      H1853   1.084       .  S
C1849      C1850   1.417       .  A
C1850      N1851   1.425       .  S
N1851      O1855   1.262       .  A
N1851      O1856   1.262       .  A
N1854      O1858   1.255       .  A
N1854      O1857   1.262       .  A
C1859      C1860   1.409       .  A
C1859      C1864   1.422       .  A
C1859      H1866   1.083       .  S
C1860      C1861   1.415       .  A
C1861      C1862   1.374       .  A
C1861      N1868   1.426       .  S
C1862      C1863   1.384       .  A
C1862      H1867   1.087       .  S
C1863      C1864   1.420       .  A
C1864      N1865   1.441   1_556  S
N1865      O1869   1.261       .  A
N1865      O1870   1.262       .  A
N1868      O1872   1.261       .  A
N1868      O1871   1.262       .  A
C1873      C1874   1.403       .  A
C1873      C1878   1.423       .  A
C1873      H1880   1.083       .  S
C1874      C1875   1.429       .  A
C1875      C1876   1.391       .  A
C1875      N1882   1.424       .  S
C1876      C1877   1.384       .  A
C1876      H1881   1.086       .  S
C1877      C1878   1.417       .  A
C1878      N1879   1.427       .  S
N1879      O3923   1.262       .  A
N1879      O1884   1.262       .  A
N1882      O1886   1.262       .  A
N1882      O1885   1.262       .  A
O1883      N3919   1.262   1_455  A
C1887      C1888   1.423       .  A
C1887      C1892   1.410       .  A
C1887      H1894   1.078       .  S
C1888      C1889   1.412       .  A
C1889      C1890   1.405       .  A
C1889      N1896   1.426       .  S
C1890      C1891   1.401       .  A
C1890      H1895   1.069       .  S
C1891      C1892   1.395       .  A
C1892      N1893   1.431       .  S
N1893      O1897   1.262       .  A
N1893      O1898   1.262       .  A
N1896      O1900   1.262       .  A
N1896      O1899   1.262       .  A
C1901      C1902   1.424       .  A
C1901      C1906   1.427       .  A
C1901      H1908   1.083       .  S
C1902      C1903   1.407       .  A
C1903      C1904   1.393       .  A
C1903      N1910   1.428       .  S
C1904      C1905   1.404       .  A
C1904      H1909   1.074       .  S
C1905      C1906   1.408       .  A
C1906      N1907   1.428       .  S
N1907      O1911   1.262       .  A
N1907      O1912   1.261       .  A
N1910      O1914   1.262       .  A
N1910      O1913   1.262       .  A
C1915      C1916   1.391       .  A
C1915      C1920   1.410       .  A
C1915      H1922   1.084       .  S
C1916      C1917   1.447       .  A
C1917      C1918   1.398       .  A
C1917      N1924   1.437       .  S
C1918      C1919   1.384       .  A
C1918      H1923   1.085       .  S
C1919      C1920   1.443       .  A
C1920      N1921   1.435       .  S
N1921      O1925   1.262       .  A
N1921      O1926   1.261       .  A
N1924      O1928   1.261       .  A
N1924      O1927   1.263       .  A
C1929      C1930   1.380       .  A
C1929      C1934   1.392       .  A
C1929      H1936   1.084       .  S
C1930      C1931   1.440       .  A
C1931      C1932   1.415       .  A
C1931      N1938   1.436       .  S
C1932      C1933   1.393       .  A
C1932      H1937   1.084       .  S
C1933      C1934   1.446       .  A
C1934      N1935   1.435       .  S
N1935      O1939   1.260       .  A
N1935      O1940   1.261       .  A
N1938      O1942   1.261       .  A
C1943      C1944   1.404       .  A
C1943      C1948   1.398       .  A
C1943      H1950   1.078       .  S
C1944      C1945   1.402       .  A
C1945      C1946   1.413       .  A
C1945      N1952   1.430       .  S
C1946      C1947   1.422       .  A
C1946      H1951   1.083       .  S
C1947      C1948   1.404       .  A
C1948      N1949   1.426       .  S
N1949      O1953   1.261       .  A
N1949      O1954   1.262       .  A
N1952      O1956   1.262       .  A
N1952      O1955   1.261       .  A
C1957      C1958   1.406       .  A
C1957      C1962   1.421       .  A
C1957      H1964   1.081       .  S
C1958      C1959   1.413       .  A
C1959      C1960   1.382       .  A
C1959      N1966   1.430       .  S
C1960      C1961   1.394       .  A
C1960      H1965   1.086       .  S
C1961      C1962   1.417       .  A
C1962      N1963   1.435       .  S
N1963      O1967   1.261       .  A
N1963      O1968   1.262       .  A
N1966      O1970   1.261       .  A
N1966      O1969   1.262       .  A
C1971      C1972   1.397       .  A
C1971      C1976   1.404       .  A
C1971      H1978   1.085       .  S
C1972      C1973   1.433       .  A
C1973      C1974   1.418       .  A
C1973      N1980   1.434       .  S
C1974      C1975   1.393       .  A
C1974      H1979   1.083       .  S
C1975      C1976   1.437       .  A
C1976      N1977   1.442       .  S
N1977      O1981   1.259       .  A
N1977      O1982   1.261       .  A
N1980      O1984   1.261       .  A
C1985      C1986   1.397       .  A
C1985      C1990   1.418       .  A
C1985      H1992   1.084       .  S
C1986      C1987   1.450       .  A
C1987      C1988   1.404       .  A
C1987      N1994   1.432       .  S
C1988      C1989   1.382       .  A
C1988      H1993   1.085       .  S
C1989      C1990   1.442       .  A
C1990      N1991   1.431       .  S
N1991      O1995   1.260   1_455  A
N1991      O1996   1.261       .  A
N1994      O1998   1.260       .  A
N1994      O1997   1.261       .  A
C1999      C2000   1.398       .  A
C1999      C2004   1.412       .  A
C1999      H2006   1.084       .  S
C2000      C2001   1.435       .  A
C2001      C2002   1.403       .  A
C2001      N2008   1.433       .  S
C2002      C2003   1.394       .  A
C2002      H2007   1.084       .  S
C2003      C2004   1.430       .  A
C2004      N2005   1.429       .  S
N2005      O2009   1.262       .  A
N2005      O2010   1.261       .  A
N2008      O4052   1.261   1_455  A
N2008      O2011   1.261       .  A
O2012      N4048   1.262       .  A
C2013      C2014   1.391       .  A
C2013      C2018   1.377       .  A
C2013      H2020   1.085       .  S
C2014      C2015   1.422       .  A
C2015      C2016   1.419       .  A
C2015      N2022   1.425       .  S
C2016      C2017   1.406       .  A
C2016      H2021   1.083       .  S
C2017      C2018   1.397       .  A
C2018      N2019   1.400       .  S
N2019      O4063   1.260       .  A
N2019      O4064   1.252   1_455  A
N2022      O2026   1.261       .  A
N2022      O2025   1.262       .  A
O2023      N4059   1.260       .  A
O2024      N4059   1.252       .  A
C2027      C2028   1.401       .  A
C2027      C2032   1.388       .  A
C2027      H2034   1.082       .  S
C2028      C2029   1.402       .  A
C2029      C2030   1.410       .  A
C2029      N2036   1.430       .  S
C2030      C2031   1.408       .  A
C2030      H2035   1.063       .  S
C2031      C2032   1.402       .  A
C2032      N2033   1.423       .  S
N2033      O2037   1.256       .  A
N2033      O2038   1.261       .  A
N2036      O4080   1.260       .  A
N2036      O4079   1.262       .  A
O2039      N4076   1.262       .  A
O2040      N4076   1.261       .  A
O2041      C2049   1.275       .  A
O2041     Co2061   2.020   1_554  S
O2042      C2050   1.296       .  A
O2042     Co2062   2.058       .  S
O2043      C2051   1.264       .  A
O2043     Co2063   1.994       .  S
O2044      C2052   1.287       .  A
O2044     Co2064   1.939       .  S
O2045      C2051   1.285       .  A
O2045     Co2572   2.014       .  S
O2046      C2052   1.337       .  A
O2046     Co2571   2.192       .  S
O2047      C2050   1.247       .  A
O2047     Co2064   1.956       .  S
O2048      C2049   1.266       .  A
O2048     Co2063   1.988       .  S
C2049      C2541   1.482       .  S
C2050      C2496   1.531       .  S
C2051      C2513   1.494       .  S
C2052      C2524   1.488       .  S
O2053      C2066   1.293       .  A
O2053     Co2571   2.022       .  S
O2054      C2067   1.284       .  A
O2054     Co2572   1.991       .  S
O2055      C2068   1.291       .  A
O2055     Co2063   2.007       .  S
O2056      C2069   1.289       .  A
O2056     Co2064   2.040       .  S
O2057      C2069   1.246       .  A
O2057     Co2062   1.933       .  S
O2058      C2068   1.287       .  A
O2058     Co2061   2.061   1_554  S
O2059      C2066   1.273       .  A
O2059     Co2064   1.959       .  S
O2060      C2067   1.285       .  A
O2060     Co2063   2.006       .  S
Co2061     O2556   2.185       .  S
Co2061     O2563   2.031       .  S
Co2061     O2065   2.033   1_556  S
Co2062     O2555   2.010       .  S
Co2062     O2564   1.998       .  S
Co2062     O2575   2.054       .  S
Co2063     O2065   2.068       .  S
Co2064     O2575   1.962       .  S
O2065     Co2572   2.054       .  S
O2065     Co2574   1.959   1_554  S
C2066      C2454   1.486       .  S
C2067      C2471   1.473       .  S
C2068      C2482   1.522       .  S
C2069      C2440   1.472       .  S
O2070      C2078   1.257       .  A
O2070     Co2090   1.947       .  S
O2071      C2079   1.289       .  A
O2071     Co2091   2.056       .  S
O2072      C2080   1.300       .  A
O2072     Co2602   2.015       .  S
O2073      C2081   1.284       .  A
O2073     Co2603   2.019   1_554  S
O2074      C2080   1.295       .  A
O2074     Co2091   2.071       .  S
O2075      C2081   1.278       .  A
O2075     Co2090   2.002       .  S
O2076      C2079   1.283       .  A
O2076     Co2093   2.023       .  S
O2077      C2078   1.306       .  A
O2077     Co2092   2.069   1_554  S
C2078      C2426   1.513       .  S
C2079      C2384   1.514       .  S
C2080      C2412   1.520       .  S
C2081      C2398   1.490       .  S
O2082      C2095   1.278       .  A
O2082     Co2090   2.022       .  S
O2083      C2096   1.266       .  A
O2083     Co2091   1.996       .  S
O2084      C2097   1.264       .  A
O2084     Co2092   1.997   1_554  S
O2085      C2098   1.282       .  A
O2085     Co2093   1.916       .  S
O2086      C2098   1.337       .  A
O2086     Co2091   2.189       .  S
O2087      C2097   1.293       .  A
O2087     Co2090   2.012       .  S
O2088      C2095   1.263       .  A
O2088     Co2603   2.017   1_554  S
O2089      C2096   1.269       .  A
O2089     Co2602   1.970       .  S
Co2090     O2094   2.041       .  S
Co2091     O2604   2.058       .  S
Co2092     O2582   2.038       .  S
Co2092     O2599   1.952       .  S
Co2092     O2094   2.060   1_556  S
Co2093     O2583   2.010       .  S
Co2093     O2598   2.019       .  S
Co2093     O2604   1.981       .  S
O2094     Co2601   2.056   1_554  S
O2094     Co2603   1.974   1_554  S
C2095      C2331   1.512       .  S
C2096      C2373   1.466       .  S
C2097      C2342   1.496       .  S
C2098      C2359   1.494       .  S
O2099      C2107   1.298       .  A
O2099     Co2119   2.048       .  S
O2100      C2108   1.273       .  A
O2100     Co2120   1.978       .  S
O2101      C2109   1.271       .  A
O2101     Co3141   2.006       .  S
O2102      C2110   1.249       .  A
O2102     Co2122   1.936   1_545  S
O2103      C2109   1.272       .  A
O2103     Co2120   1.989       .  S
O2104      C2110   1.292       .  A
O2104     Co2119   2.031       .  S
O2105      C2108   1.284       .  A
O2105     Co3142   2.056       .  S
O2106      C2107   1.263       .  A
O2106     Co2121   1.973   1_545  S
C2107      C2314   1.513       .  S
C2108      C2275   1.491       .  S
C2109      C2286   1.472       .  S
C2110      C2303   1.477       .  S
O2111      C2124   1.271       .  A
O2111     Co2119   1.993       .  S
O2112      C2125   1.271       .  A
O2112     Co2120   1.982       .  S
O2113      C2126   1.301       .  A
O2113     Co2121   2.065   1_545  S
O2114      C2127   1.286       .  A
O2114     Co3142   2.042       .  S
O2115      C2127   1.268       .  A
O2115     Co2120   2.021       .  S
O2116      C2126   1.260       .  A
O2116     Co2119   1.978       .  S
O2117      C2124   1.298       .  A
O2117     Co2122   2.034   1_545  S
O2118      C2125   1.287       .  A
O2118     Co3141   2.017       .  S
Co2119     O2123   2.113   1_545  S
Co2120     O3143   2.107       .  S
Co2121     O3121   2.009       .  S
Co2121     O3138   2.026       .  S
Co2121     O2123   2.105       .  S
Co2122     O3125   2.062       .  S
Co2122     O3134   2.037       .  S
Co2122     O2123   2.111       .  S
O2123     Co3140   2.114       .  S
C2124      C2345   1.508       .  S
C2125      C2468   1.481       .  S
C2126      C2485   1.523       .  S
C2127      C2328   1.527       .  S
O2128      C2136   1.263       .  A
O2128     Co2148   1.978       .  S
O2129      C2137   1.270       .  A
O2129     Co3169   2.004       .  S
O2130      C2138   1.288       .  A
O2130     Co2150   2.040       .  S
O2131      C2139   1.283       .  A
O2131     Co2151   2.009       .  S
O2132      C2138   1.267       .  A
O2132     Co2149   1.984   1_545  S
O2133      C2139   1.267       .  A
O2133     Co3168   1.966       .  S
O2134      C2137   1.279       .  A
O2134     Co2151   1.990       .  S
O2135      C2136   1.294       .  A
O2135     Co2150   2.029       .  S
C2136      C2258   1.497       .  S
C2137      C2219   1.481       .  S
C2138      C2244   1.509       .  S
C2139      C2233   1.481       .  S
O2140      C2153   1.290       .  A
O2140     Co3168   2.019       .  S
O2141      C2154   1.273       .  A
O2141     Co2149   1.983   1_545  S
O2142      C2155   1.265       .  A
O2142     Co2150   1.989       .  S
O2143      C2156   1.273       .  A
O2143     Co2151   2.017       .  S
O2144      C2156   1.280       .  A
O2144     Co3169   1.994       .  S
O2145      C2155   1.294       .  A
O2145     Co2148   2.028       .  S
O2146      C2153   1.256       .  A
O2146     Co2151   1.947       .  S
O2147      C2154   1.274       .  A
O2147     Co2150   1.998       .  S
Co2148     O3153   1.962   1_545  S
Co2148     O3160   2.030   1_545  S
Co2148     O2152   2.102       .  S
Co2149     O3149   2.008       .  S
Co2149     O3164   1.974       .  S
Co2149     O2152   2.094   1_565  S
Co2150     O2152   2.099       .  S
Co2151     O3172   2.103       .  S
O2152     Co3171   2.105   1_545  S
C2153      C2443   1.484       .  S
C2154      C2370   1.466       .  S
C2155      C2457   1.490       .  S
C2156      C2356   1.493       .  S
O2157      C2165   1.265       .  A
O2157     Co2177   1.979       .  S
O2158      C2166   1.284       .  A
O2158     Co2178   2.021       .  S
O2159      C2167   1.269       .  A
O2160      C2168   1.275       .  A
O2161      C2167   1.307       .  A
O2161     Co2178   2.059       .  S
O2162      C2168   1.277       .  A
O2162     Co2177   1.982       .  S
O2163      C2166   1.264       .  A
O2163     Co2180   1.994   1_655  S
O2164      C2165   1.267       .  A
O2164     Co2179   1.987       .  S
C2165      C2538   1.476       .  S
C2166      C2415   1.525       .  S
C2167      C2429   1.521       .  S
C2168      C2527   1.489       .  S
O2169      C2182   1.253       .  A
O2169     Co2177   1.977       .  S
O2170      C2183   1.244       .  A
O2170     Co2178   1.927       .  S
O2171      C2184   1.281       .  A
O2171     Co2179   1.998       .  S
O2172      C2185   1.284       .  A
O2172     Co2180   2.005   1_655  S
O2173      C2185   1.288       .  A
O2173     Co2178   2.063       .  S
O2174      C2184   1.280       .  A
O2174     Co2177   2.032       .  S
O2175      C2182   1.284       .  A
O2176      C2183   1.285       .  A
Co2178     O2181   2.114   1_655  S
Co2180     O2181   2.100       .  S
C2182      C2261   1.489       .  S
C2183      C2300   1.465       .  S
C2184      C2317   1.484       .  S
C2185      C2247   1.502       .  S
O2186      C2194   1.268       .  A
O2186     Co2206   1.998       .  S
O2187      C2195   1.279       .  A
O2188      C2196   1.285       .  A
O2188     Co2208   2.027       .  S
O2189      C2197   1.283       .  A
O2189     Co2209   2.033       .  S
O2190      C2196   1.263       .  A
O2190     Co2207   2.002       .  S
O2191      C2197   1.266       .  A
O2192      C2195   1.278       .  A
O2192     Co2209   2.003       .  S
O2193      C2194   1.287       .  A
O2193     Co2208   2.013       .  S
C2194      C2510   1.501       .  S
C2195      C2387   1.491       .  S
C2196      C2499   1.516       .  S
C2197      C2401   1.489       .  S
O2198      C2211   1.288       .  A
O2199      C2212   1.292       .  A
O2199     Co2207   2.027       .  S
O2200      C2213   1.272       .  A
O2200     Co2208   1.952       .  S
O2201      C2214   1.275       .  A
O2201     Co2209   2.006       .  S
O2202      C2214   1.276       .  A
O2203      C2213   1.288       .  A
O2203     Co2206   2.000       .  S
O2204      C2211   1.271       .  A
O2204     Co2209   1.986       .  S
O2205      C2212   1.281       .  A
O2205     Co2208   2.026       .  S
Co2206     O2210   2.113       .  S
Co2207     O2210   2.100       .  S
Co2208     O2210   1.962       .  S
C2211      C2272   1.506       .  S
C2212      C2230   1.499       .  S
C2213      C2289   1.473       .  S
C2214      C2216   1.477       .  S
C2215      C2216   1.404       .  A
C2215      C2220   1.393       .  A
C2215      H2222   1.082       .  S
C2216      C2217   1.403       .  A
C2217      C2218   1.401       .  A
C2217      N2224   1.429       .  S
C2218      C2219   1.414       .  A
C2218      H2223   1.079       .  S
C2219      C2220   1.404       .  A
C2220      N2221   1.425       .  S
N2221      O2225   1.262       .  A
N2221      O2226   1.261       .  A
N2224      O3248   1.262       .  A
N2224      O2227   1.262       .  A
O2228      N3244   1.262       .  A
C2229      C2230   1.420       .  A
C2229      C2234   1.425       .  A
C2229      H2236   1.070       .  S
C2230      C2231   1.406       .  A
C2231      C2232   1.387       .  A
C2231      N2238   1.421       .  S
C2232      C2233   1.400       .  A
C2232      H2237   1.085       .  S
C2233      C2234   1.394       .  A
C2234      N2235   1.433       .  S
N2235      O2239   1.257       .  A
N2235      O2240   1.258       .  A
N2238      O2242   1.262       .  A
N2238      O2241   1.261       .  A
C2243      C2244   1.414       .  A
C2243      C2248   1.397       .  A
C2243      H2250   1.080       .  S
C2244      C2245   1.406       .  A
C2245      C2246   1.416       .  A
C2245      N2252   1.425       .  S
C2246      C2247   1.409       .  A
C2246      H2251   1.070       .  S
C2247      C2248   1.402       .  A
C2248      N2249   1.425       .  S
N2249      O2253   1.257       .  A
N2249      O2254   1.261       .  A
N2252      O2256   1.261   1_545  A
N2252      O2255   1.260       .  A
C2257      C2258   1.396       .  A
C2257      C2262   1.406       .  A
C2257      H2264   1.084       .  S
C2258      C2259   1.433       .  A
C2259      C2260   1.399       .  A
C2259      N2266   1.426       .  S
C2260      C2261   1.387       .  A
C2260      H2265   1.085       .  S
C2261      C2262   1.430       .  A
C2262      N2263   1.429       .  S
N2263      O2267   1.261       .  A
N2263      O2268   1.262       .  A
N2266      O2270   1.256   1_545  A
N2266      O2269   1.257       .  A
C2271      C2272   1.416       .  A
C2271      C2276   1.393       .  A
C2271      H2278   1.079       .  S
C2272      C2273   1.404       .  A
C2273      C2274   1.412       .  A
C2273      N2280   1.426       .  S
C2274      C2275   1.407       .  A
C2274      H2279   1.050       .  S
C2275      C2276   1.401       .  A
C2276      N2277   1.429       .  S
N2277      O2281   1.261       .  A
N2277      O2282   1.261       .  A
N2280      O2284   1.260       .  A
N2280      O2283   1.261       .  A
C2285      C2286   1.412       .  A
C2285      C2290   1.393       .  A
C2285      H2292   1.081       .  S
C2286      C2287   1.417       .  A
C2287      C2288   1.389       .  A
C2287      N2294   1.442       .  S
C2288      C2289   1.416       .  A
C2288      H2293   1.084       .  S
C2289      C2290   1.399       .  A
C2290      N2291   1.430       .  S
N2291      O2295   1.260       .  A
N2291      O2296   1.261       .  A
N2294      O2298   1.259       .  A
N2294      O2297   1.260       .  A
C2299      C2300   1.381       .  A
C2299      C2304   1.389       .  A
C2299      H2306   1.085       .  S
C2300      C2301   1.432       .  A
C2301      C2302   1.396       .  A
C2301      N2308   1.432       .  S
C2302      C2303   1.387       .  A
C2302      H2307   1.084       .  S
C2303      C2304   1.438       .  A
C2304      N2305   1.432       .  S
N2305      O3329   1.262       .  A
N2305      O3330   1.262       .  A
N2308      O2312   1.261       .  A
N2308      O2311   1.262       .  A
O2309      N3325   1.262       .  A
O2310      N3325   1.262       .  A
C2313      C2314   1.401       .  A
C2313      C2318   1.424       .  A
C2313      H2320   1.074       .  S
C2314      C2315   1.437       .  A
C2315      C2316   1.396       .  A
C2315      N2322   1.432       .  S
C2316      C2317   1.387       .  A
C2316      H2321   1.084       .  S
C2317      C2318   1.409       .  A
C2318      N2319   1.428       .  S
N2319      O2323   1.254       .  A
N2319      O2324   1.262       .  A
N2322      O2326   1.259       .  A
N2322      O2325   1.262       .  A
C2327      C2328   1.428       .  A
C2327      C2332   1.423       .  A
C2327      H2334   1.083       .  S
C2328      C2329   1.412       .  A
C2329      C2330   1.408       .  A
C2329      N2336   1.426       .  S
C2330      C2331   1.407       .  A
C2330      H2335   1.072       .  S
C2331      C2332   1.405       .  A
C2332      N2333   1.428       .  S
N2333      O2337   1.262       .  A
N2333      O2338   1.262       .  A
N2336      O2340   1.262       .  A
N2336      O2339   1.262       .  A
C2341      C2342   1.375       .  A
C2341      C2346   1.389       .  A
C2341      H2348   1.086       .  S
C2342      C2343   1.429       .  A
C2343      C2344   1.418       .  A
C2343      N2350   1.427       .  S
C2344      C2345   1.403       .  A
C2344      H2349   1.084       .  S
C2345      C2346   1.432       .  A
C2346      N2347   1.419       .  S
N2347      O2351   1.263       .  A
N2347      O2352   1.262       .  A
N2350      O2354   1.260   1_554  A
N2350      O2353   1.262       .  A
C2355      C2356   1.408       .  A
C2355      C2360   1.418       .  A
C2355      H2362   1.084       .  S
C2356      C2357   1.412       .  A
C2357      C2358   1.384       .  A
C2357      N2364   1.415       .  S
C2358      C2359   1.389       .  A
C2358      H2363   1.084       .  S
C2359      C2360   1.419       .  A
C2360      N2361   1.425       .  S
N2361      O2365   1.262       .  A
N2361      O2366   1.261       .  A
N2364      O2368   1.258       .  A
N2364      O2367   1.261       .  A
C2369      C2370   1.404       .  A
C2369      C2374   1.420       .  A
C2369      H2376   1.083       .  S
C2370      C2371   1.405       .  A
C2371      C2372   1.369       .  A
C2371      N2378   1.423       .  S
C2372      C2373   1.389       .  A
C2372      H2377   1.087       .  S
C2373      C2374   1.428       .  A
C2374      N2375   1.444       .  S
N2375      O2379   1.263       .  A
N2375      O2380   1.260       .  A
N2378      O2382   1.261       .  A
N2378      O2381   1.262       .  A
C2383      C2384   1.407       .  A
C2383      C2388   1.425       .  A
C2383      H2390   1.083       .  S
C2384      C2385   1.429       .  A
C2385      C2386   1.398       .  A
C2385      N2392   1.425       .  S
C2386      C2387   1.388       .  A
C2386      H2391   1.086       .  S
C2387      C2388   1.415       .  A
C2388      N2389   1.430       .  S
N2389      O2394   1.263       .  A
N2392      O2396   1.262       .  A
N2392      O2395   1.262       .  A
C2397      C2398   1.400       .  A
C2397      C2402   1.392       .  A
C2397      H2404   1.085       .  S
C2398      C2399   1.420       .  A
C2399      C2400   1.424       .  A
C2399      N2406   1.430       .  S
C2400      C2401   1.406       .  A
C2400      H2405   1.082       .  S
C2401      C2402   1.408       .  A
C2402      N2403   1.420       .  S
N2403      O2407   1.261       .  A
N2403      O2408   1.262       .  A
N2406      O2410   1.260       .  A
N2406      O2409   1.262       .  A
C2411      C2412   1.426       .  A
C2411      C2416   1.428       .  A
C2411      H2418   1.082       .  S
C2412      C2413   1.410       .  A
C2413      C2414   1.400       .  A
C2413      N2420   1.429       .  S
C2414      C2415   1.407       .  A
C2414      H2419   1.078       .  S
C2415      C2416   1.407       .  A
C2416      N2417   1.426       .  S
N2417      O2421   1.262       .  A
N2417      O2422   1.261       .  A
N2420      O2424   1.262       .  A
N2420      O2423   1.262       .  A
C2425      C2426   1.393       .  A
C2425      C2430   1.414       .  A
C2425      H2432   1.085       .  S
C2426      C2427   1.445       .  A
C2427      C2428   1.409       .  A
C2427      N2434   1.433       .  S
C2428      C2429   1.391       .  A
C2428      H2433   1.084       .  S
C2429      C2430   1.444       .  A
C2430      N2431   1.433       .  S
N2431      O2435   1.262       .  A
N2431      O2436   1.260   1_655  A
N2434      O2438   1.258       .  A
N2434      O2437   1.263       .  A
C2439      C2440   1.377       .  A
C2439      C2444   1.385       .  A
C2439      H2446   1.080       .  S
C2440      C2441   1.437       .  A
C2441      C2442   1.406       .  A
C2441      N2448   1.436       .  S
C2442      C2443   1.393       .  A
C2442      H2447   1.084       .  S
C2443      C2444   1.433       .  A
C2444      N2445   1.436       .  S
N2445      O2449   1.260       .  A
N2445      O2450   1.261       .  A
N2448      O2452   1.262       .  A
N2448      O2961   1.260       .  A
O2451      N2958   1.259   1_554  A
C2453      C2454   1.404       .  A
C2453      C2458   1.388       .  A
C2453      H2460   1.083       .  S
C2454      C2455   1.401       .  A
C2455      C2456   1.416       .  A
C2455      N2462   1.430       .  S
C2456      C2457   1.419       .  A
C2456      H2461   1.078       .  S
C2457      C2458   1.405       .  A
C2458      N2459   1.426       .  S
N2459      O2463   1.260       .  A
N2459      O2464   1.262       .  A
N2462      O2466   1.262       .  A
N2462      O2465   1.259       .  A
C2467      C2468   1.405       .  A
C2467      C2472   1.423       .  A
C2467      H2474   1.082       .  S
C2468      C2469   1.411       .  A
C2469      C2470   1.381       .  A
C2469      N2476   1.422       .  S
C2470      C2471   1.388       .  A
C2470      H2475   1.085       .  S
C2471      C2472   1.419       .  A
C2472      N2473   1.434       .  S
N2473      O2477   1.261   1_554  A
N2473      O2478   1.262       .  A
N2476      O2480   1.254       .  A
N2476      O2479   1.262       .  A
C2481      C2482   1.398       .  A
C2481      C2486   1.406       .  A
C2481      H2488   1.085       .  S
C2482      C2483   1.438       .  A
C2483      C2484   1.427       .  A
C2483      N2490   1.440       .  S
C2484      C2485   1.400       .  A
C2484      H2489   1.083       .  S
C2485      C2486   1.440       .  A
C2486      N2487   1.443       .  S
N2487      O2491   1.259       .  A
N2487      O2492   1.261       .  A
N2490      O2494   1.259       .  A
N2490      O3003   1.261   1_554  A
O2493      N3000   1.261       .  A
C2495      C2496   1.395       .  A
C2495      C2500   1.418       .  A
C2495      H2502   1.084       .  S
C2496      C2497   1.453       .  A
C2497      C2498   1.408       .  A
C2497      N2504   1.430       .  S
C2498      C2499   1.387       .  A
C2498      H2503   1.085       .  S
C2499      C2500   1.437       .  A
C2500      N2501   1.426       .  S
N2501      O2505   1.259       .  A
N2501      O2506   1.261       .  A
N2504      O2508   1.256       .  A
N2504      O2507   1.261       .  A
C2509      C2510   1.398       .  A
C2509      C2514   1.408       .  A
C2509      H2516   1.083       .  S
C2510      C2511   1.430       .  A
C2511      C2512   1.397       .  A
C2511      N2518   1.429       .  S
C2512      C2513   1.390       .  A
C2512      H2517   1.084       .  S
C2513      C2514   1.427       .  A
C2514      N2515   1.430       .  S
N2515      O2519   1.262       .  A
N2515      O2520   1.261       .  A
N2518      O2521   1.261       .  A
C2523      C2524   1.392       .  A
C2523      C2528   1.381       .  A
C2523      H2530   1.085       .  S
C2524      C2525   1.421       .  A
C2525      C2526   1.419       .  A
C2525      N2532   1.426       .  S
C2526      C2527   1.407       .  A
C2526      H2531   1.082       .  S
C2527      C2528   1.397       .  A
C2528      N2529   1.400       .  S
N2532      O2536   1.262       .  A
N2532      O2535   1.262       .  A
C2537      C2538   1.393       .  A
C2537      C2542   1.380       .  A
C2537      H2544   1.084       .  S
C2538      C2539   1.407       .  A
C2539      C2540   1.418       .  A
C2539      N2546   1.431       .  S
C2540      C2541   1.415       .  A
C2540      H2545   1.076       .  S
C2541      C2542   1.403       .  A
C2542      N2543   1.420       .  S
N2543      O2547   1.258       .  A
N2543      O2548   1.261       .  A
O2551      C2559   1.273       .  A
O2551     Co2571   2.012       .  S
O2552      C2560   1.294       .  A
O2552     Co2572   2.051   1_556  S
O2553      C2561   1.267       .  A
O2553     Co2573   2.007       .  S
O2554      C2562   1.287       .  A
O2554     Co2574   1.935       .  S
O2555      C2561   1.285       .  A
O2556      C2562   1.335       .  A
O2557      C2560   1.247       .  A
O2557     Co2574   1.952       .  S
O2558      C2559   1.264       .  A
O2558     Co2573   1.982       .  S
C2559      C3051   1.472       .  S
C2560      C3006   1.522       .  S
C2561      C3023   1.499       .  S
C2562      C3034   1.486       .  S
O2563      C2576   1.294       .  A
O2564      C2577   1.283       .  A
O2565      C2578   1.292       .  A
O2565     Co2573   2.006       .  S
O2566      C2579   1.290       .  A
O2566     Co2574   2.046       .  S
O2567      C2579   1.249       .  A
O2567     Co2572   1.946   1_556  S
O2568      C2578   1.288       .  A
O2568     Co2571   2.060       .  S
O2569      C2576   1.272       .  A
O2569     Co2574   1.951       .  S
O2570      C2577   1.285       .  A
O2570     Co2573   2.006       .  S
Co2571     O2575   2.029       .  S
Co2573     O2575   2.070       .  S
C2576      C2964   1.483       .  S
C2577      C2981   1.474       .  S
C2578      C2992   1.515       .  S
C2579      C2950   1.484       .  S
O2580      C2588   1.258       .  A
O2580     Co2600   1.948       .  S
O2581      C2589   1.293       .  A
O2581     Co2601   2.060       .  S
O2582      C2590   1.308       .  A
O2583      C2591   1.281       .  A
O2584      C2590   1.294       .  A
O2584     Co2601   2.061       .  S
O2585      C2591   1.281       .  A
O2585     Co2600   2.010       .  S
O2586      C2589   1.286       .  A
O2586     Co2603   2.023       .  S
O2587      C2588   1.302       .  A
O2587     Co2602   2.055       .  S
C2588      C2936   1.504       .  S
C2589      C2894   1.513       .  S
C2590      C2922   1.526       .  S
C2591      C2908   1.487       .  S
O2592      C2605   1.275       .  A
O2592     Co2600   2.018       .  S
O2593      C2606   1.273       .  A
O2593     Co2601   2.026       .  S
O2594      C2607   1.261       .  A
O2594     Co2602   1.989       .  S
O2595      C2608   1.280       .  A
O2595     Co2603   1.906       .  S
O2596      C2608   1.340       .  A
O2596     Co2601   2.199       .  S
O2597      C2607   1.293       .  A
O2597     Co2600   2.021       .  S
O2598      C2605   1.263       .  A
O2599      C2606   1.267       .  A
Co2600     O2604   2.047       .  S
Co2602     O2604   2.066       .  S
C2605      C2841   1.511       .  S
C2606      C2883   1.492       .  S
C2607      C2852   1.494       .  S
C2608      C2869   1.487       .  S
O2609      C2617   1.297       .  A
O2609     Co2629   2.044       .  S
O2610      C2618   1.273       .  A
O2610     Co2630   1.988       .  S
O2611      C2619   1.266       .  A
O2611     Co3651   1.980       .  S
O2612      C2620   1.251       .  A
O2612     Co2632   1.938   1_545  S
O2613      C2619   1.274       .  A
O2613     Co2630   1.994       .  S
O2614      C2620   1.293       .  A
O2614     Co2629   2.031       .  S
O2615      C2618   1.281       .  A
O2615     Co3652   2.047       .  S
O2616      C2617   1.265       .  A
O2616     Co2631   1.979   1_545  S
C2617      C2824   1.509       .  S
C2618      C2785   1.492       .  S
C2619      C2796   1.468       .  S
C2620      C2813   1.476       .  S
O2621      C2634   1.269       .  A
O2621     Co2629   1.989       .  S
O2622      C2635   1.268       .  A
O2622     Co2630   1.983       .  S
O2623      C2636   1.301       .  A
O2623     Co2631   2.055   1_545  S
O2624      C2637   1.285       .  A
O2624     Co3652   2.029       .  S
O2625      C2637   1.271       .  A
O2625     Co2630   2.025       .  S
O2626      C2636   1.261       .  A
O2626     Co2629   1.976       .  S
O2627      C2634   1.298       .  A
O2627     Co2632   2.040   1_545  S
O2628      C2635   1.288       .  A
O2628     Co3651   2.031       .  S
Co2629     O2633   2.109   1_545  S
Co2630     O3653   2.109       .  S
Co2631     O3631   1.998       .  S
Co2631     O3648   2.041       .  S
Co2631     O2633   2.103       .  S
Co2632     O3635   2.061       .  S
Co2632     O3644   2.026       .  S
Co2632     O2633   2.106       .  S
O2633     Co3650   2.108       .  S
C2634      C2855   1.508       .  S
C2635      C2978   1.494       .  S
C2636      C2995   1.515       .  S
C2637      C2838   1.523       .  S
O2638      C2646   1.267       .  A
O2638     Co2658   1.970       .  S
O2639      C2647   1.253       .  A
O2639     Co3679   2.051       .  S
O2640      C2648   1.300       .  A
O2640     Co2660   2.046       .  S
O2641      C2649   1.279       .  A
O2641     Co2661   2.011       .  S
O2642      C2648   1.281       .  A
O2642     Co2659   2.005   1_545  S
O2643      C2649   1.271       .  A
O2643     Co3678   1.975       .  S
O2644      C2647   1.253       .  A
O2644     Co2661   1.989       .  S
O2645      C2646   1.305       .  A
O2645     Co2660   2.044       .  S
C2646      C2768   1.501       .  S
C2647      C2729   1.499       .  S
C2648      C2754   1.515       .  S
C2649      C2743   1.480       .  S
O2650      C2663   1.291       .  A
O2650     Co3678   2.048       .  S
O2651      C2664   1.279       .  A
O2651     Co2659   1.995   1_545  S
O2652      C2665   1.263       .  A
O2652     Co2660   1.977       .  S
O2653      C2666   1.320       .  A
O2653     Co2661   2.167       .  S
O2654      C2666   1.288       .  A
O2654     Co3679   1.887       .  S
O2655      C2665   1.288       .  A
O2655     Co2658   2.022       .  S
O2656      C2663   1.246       .  A
O2656     Co2661   1.925       .  S
O2657      C2664   1.278       .  A
O2657     Co2660   1.999       .  S
Co2658     O3663   1.970   1_545  S
Co2658     O3670   2.043   1_545  S
Co2658     O2662   2.074       .  S
Co2659     O3659   2.052       .  S
Co2659     O3674   1.871       .  S
Co2659     O2662   1.947   1_565  S
Co2660     O2662   2.052       .  S
Co2661     O3682   2.109       .  S
O2662     Co3681   2.101   1_545  S
C2663      C2953   1.500       .  S
C2664      C2880   1.474       .  S
C2665      C2967   1.482       .  S
C2666      C2866   1.494       .  S
O2667      C2675   1.264       .  A
O2667     Co2687   1.970       .  S
O2668      C2676   1.280       .  A
O2668     Co2688   1.939       .  S
O2669      C2677   1.265       .  A
O2670      C2678   1.276       .  A
O2671      C2677   1.304       .  A
O2671     Co2688   2.060       .  S
O2672      C2678   1.276       .  A
O2672     Co2687   1.978       .  S
O2673      C2676   1.297       .  A
O2673     Co2690   2.140       .  S
O2674      C2675   1.265       .  A
O2674     Co2689   1.984       .  S
C2675      C3048   1.469       .  S
C2676      C2925   1.517       .  S
C2677      C2939   1.512       .  S
C2678      C3037   1.484       .  S
O2679      C2692   1.252       .  A
O2679     Co2687   1.971       .  S
O2680      C2693   1.257       .  A
O2680     Co2688   1.943       .  S
O2681      C2694   1.280       .  A
O2681     Co2689   1.994       .  S
O2682      C2695   1.289       .  A
O2682     Co2690   1.941       .  S
O2683      C2695   1.299       .  A
O2683     Co2688   2.148       .  S
O2684      C2694   1.280       .  A
O2684     Co2687   2.032       .  S
O2685      C2692   1.286       .  A
O2686      C2693   1.292       .  A
Co2688     O2691   1.956   1_655  S
Co2690     O2691   1.982   1_655  S
C2692      C2771   1.488       .  S
C2693      C2810   1.477       .  S
C2694      C2827   1.481       .  S
C2695      C2757   1.517       .  S
O2696      C2704   1.274       .  A
O2696     Co2716   2.022       .  S
O2697      C2705   1.283       .  A
O2698      C2706   1.283       .  A
O2698     Co2718   2.016       .  S
O2699      C2707   1.282       .  A
O2699     Co2719   2.027       .  S
O2700      C2706   1.262       .  A
O2700     Co2717   1.994       .  S
O2701      C2707   1.269       .  A
O2702      C2705   1.278       .  A
O2702     Co2719   2.001       .  S
O2703      C2704   1.286       .  A
O2703     Co2718   2.007       .  S
C2704      C3020   1.503       .  S
C2705      C2897   1.492       .  S
C2706      C3009   1.507       .  S
C2707      C2911   1.493       .  S
O2708      C2721   1.287       .  A
O2709      C2722   1.292       .  A
O2709     Co2717   2.032       .  S
O2710      C2723   1.272       .  A
O2710     Co2718   1.951       .  S
O2711      C2724   1.272       .  A
O2711     Co2719   2.020       .  S
O2712      C2724   1.276       .  A
O2713      C2723   1.286       .  A
O2713     Co2716   1.993       .  S
O2714      C2721   1.270       .  A
O2714     Co2719   1.991       .  S
O2715      C2722   1.281       .  A
O2715     Co2718   2.024       .  S
Co2716     O2720   2.111       .  S
Co2717     O2720   2.095       .  S
Co2718     O2720   1.955       .  S
C2721      C2782   1.513       .  S
C2722      C2740   1.499       .  S
C2723      C2799   1.466       .  S
C2724      C2726   1.492       .  S
C2725      C2726   1.408       .  A
C2725      C2730   1.405       .  A
C2725      H2732   1.083       .  S
C2726      C2727   1.402       .  A
C2727      C2728   1.403       .  A
C2727      N2734   1.429       .  S
C2728      C2729   1.414       .  A
C2728      H2733   1.072       .  S
C2729      C2730   1.411       .  A
C2730      N2731   1.426       .  S
N2731      O2735   1.262       .  A
N2731      O2736   1.261       .  A
N2734      O3758   1.262       .  A
N2734      O2737   1.262       .  A
O2738      N3754   1.262       .  A
C2739      C2740   1.419       .  A
C2739      C2744   1.425       .  A
C2739      H2746   1.073       .  S
C2740      C2741   1.409       .  A
C2741      C2742   1.386       .  A
C2741      N2748   1.420       .  S
C2742      C2743   1.395       .  A
C2742      H2747   1.085       .  S
C2743      C2744   1.402       .  A
C2744      N2745   1.432       .  S
N2745      O2749   1.259       .  A
N2745      O2750   1.257       .  A
N2748      O2752   1.261       .  A
N2748      O2751   1.261       .  A
C2753      C2754   1.420       .  A
C2753      C2758   1.407       .  A
C2753      H2760   1.082       .  S
C2754      C2755   1.400       .  A
C2755      C2756   1.411       .  A
C2755      N2762   1.425       .  S
C2756      C2757   1.419       .  A
C2756      H2761   1.075       .  S
C2757      C2758   1.409       .  A
C2758      N2759   1.427       .  S
N2759      O2763   1.261       .  A
N2759      O2764   1.262       .  A
N2762      O2766   1.261       .  A
N2762      O2765   1.261       .  A
C2767      C2768   1.394       .  A
C2767      C2772   1.406       .  A
C2767      H2774   1.084       .  S
C2768      C2769   1.438       .  A
C2769      C2770   1.398       .  A
C2769      N2776   1.427       .  S
C2770      C2771   1.385       .  A
C2770      H2775   1.085       .  S
C2771      C2772   1.431       .  A
C2772      N2773   1.429       .  S
N2773      O2777   1.261       .  A
N2773      O2778   1.262       .  A
N2776      O2780   1.257   1_545  A
N2776      O2779   1.258       .  A
C2781      C2782   1.414       .  A
C2781      C2786   1.391       .  A
C2781      H2788   1.077       .  S
C2782      C2783   1.407       .  A
C2783      C2784   1.417       .  A
C2783      N2790   1.425       .  S
C2784      C2785   1.409       .  A
C2784      H2789   1.068       .  S
C2785      C2786   1.399       .  A
C2786      N2787   1.429       .  S
N2787      O2791   1.262       .  A
N2787      O2792   1.261       .  A
N2790      O2794   1.260       .  A
N2790      O2793   1.261       .  A
C2795      C2796   1.414       .  A
C2795      C2800   1.390       .  A
C2795      H2802   1.085       .  S
C2796      C2797   1.412       .  A
C2797      C2798   1.385       .  A
C2797      N2804   1.436       .  S
C2798      C2799   1.414       .  A
C2798      H2803   1.085       .  S
C2799      C2800   1.400       .  A
C2800      N2801   1.431       .  S
N2801      O2805   1.259       .  A
N2801      O2806   1.258       .  A
N2804      O2808   1.258       .  A
N2804      O2807   1.260       .  A
C2809      C2810   1.385       .  A
C2809      C2814   1.390       .  A
C2809      H2816   1.084       .  S
C2810      C2811   1.431       .  A
C2811      C2812   1.398       .  A
C2811      N2818   1.431       .  S
C2812      C2813   1.389       .  A
C2812      H2817   1.085       .  S
C2813      C2814   1.437       .  A
C2814      N2815   1.433       .  S
N2815      O3839   1.262       .  A
N2815      O3840   1.262   1_545  A
N2818      O2822   1.261       .  A
N2818      O2821   1.263       .  A
O2819      N3835   1.263       .  A
O2820      N3835   1.261       .  A
C2823      C2824   1.403       .  A
C2823      C2828   1.422       .  A
C2823      H2830   1.078       .  S
C2824      C2825   1.437       .  A
C2825      C2826   1.394       .  A
C2825      N2832   1.433       .  S
C2826      C2827   1.386       .  A
C2826      H2831   1.083       .  S
C2827      C2828   1.407       .  A
C2828      N2829   1.427       .  S
N2829      O2833   1.254       .  A
N2829      O2834   1.262       .  A
N2832      O2836   1.259       .  A
N2832      O2835   1.262       .  A
C2837      C2838   1.426       .  A
C2837      C2842   1.422       .  A
C2837      H2844   1.083       .  S
C2838      C2839   1.410       .  A
C2839      C2840   1.407       .  A
C2839      N2846   1.425       .  S
C2840      C2841   1.406       .  A
C2840      H2845   1.071       .  S
C2841      C2842   1.406       .  A
C2842      N2843   1.428       .  S
N2843      O2847   1.262       .  A
N2843      O2848   1.262       .  A
N2846      O2850   1.262       .  A
N2846      O2849   1.261       .  A
C2851      C2852   1.374       .  A
C2851      C2856   1.390       .  A
C2851      H2858   1.086       .  S
C2852      C2853   1.430       .  A
C2853      C2854   1.417       .  A
C2853      N2860   1.428       .  S
C2854      C2855   1.402       .  A
C2854      H2859   1.084       .  S
C2855      C2856   1.434       .  A
C2856      N2857   1.420       .  S
N2857      O2861   1.262       .  A
N2857      O2862   1.262       .  A
N2860      O2864   1.261       .  A
N2860      O2863   1.262       .  A
C2865      C2866   1.407       .  A
C2865      C2870   1.411       .  A
C2865      H2872   1.084       .  S
C2866      C2867   1.406       .  A
C2867      C2868   1.383       .  A
C2867      N2874   1.408       .  S
C2868      C2869   1.389       .  A
C2868      H2873   1.085       .  S
C2869      C2870   1.418       .  A
C2870      N2871   1.425       .  S
N2871      O2875   1.262       .  A
N2871      O2876   1.261       .  A
N2874      O2878   1.254       .  A
N2874      O2877   1.261       .  A
C2879      C2880   1.408       .  A
C2879      C2884   1.430       .  A
C2879      H2886   1.082       .  S
C2880      C2881   1.397       .  A
C2881      C2882   1.369       .  A
C2881      N2888   1.420       .  S
C2882      C2883   1.393       .  A
C2882      H2887   1.085       .  S
C2883      C2884   1.434       .  A
C2884      N2885   1.445       .  S
N2885      O2889   1.263   1_556  A
N2885      O2890   1.259   1_556  A
N2888      O2892   1.263       .  A
N2888      O2891   1.261       .  A
C2893      C2894   1.409       .  A
C2893      C2898   1.426       .  A
C2893      H2900   1.083       .  S
C2894      C2895   1.429       .  A
C2895      C2896   1.393       .  A
C2895      N2902   1.423       .  S
C2896      C2897   1.384       .  A
C2896      H2901   1.086       .  S
C2897      C2898   1.416       .  A
C2898      N2899   1.428       .  S
N2899      O2904   1.262       .  A
N2902      O2906   1.262       .  A
N2902      O2905   1.263       .  A
C2907      C2908   1.394       .  A
C2907      C2912   1.387       .  A
C2907      H2914   1.086       .  S
C2908      C2909   1.421       .  A
C2909      C2910   1.425       .  A
C2909      N2916   1.430       .  S
C2910      C2911   1.406       .  A
C2910      H2915   1.080       .  S
C2911      C2912   1.406       .  A
C2912      N2913   1.413       .  S
N2913      O2917   1.260       .  A
N2913      O2918   1.261       .  A
N2916      O2920   1.260       .  A
N2916      O2919   1.262       .  A
C2921      C2922   1.427       .  A
C2921      C2926   1.426       .  A
C2921      H2928   1.082       .  S
C2922      C2923   1.412       .  A
C2923      C2924   1.410       .  A
C2923      N2930   1.428       .  S
C2924      C2925   1.412       .  A
C2924      H2929   1.083       .  S
C2925      C2926   1.405       .  A
C2926      N2927   1.428       .  S
N2927      O2931   1.262       .  A
N2927      O2932   1.262       .  A
N2930      O2934   1.261       .  A
N2930      O2933   1.261       .  A
C2935      C2936   1.390       .  A
C2935      C2940   1.407       .  A
C2935      H2942   1.085       .  S
C2936      C2937   1.442       .  A
C2937      C2938   1.408       .  A
C2937      N2944   1.432       .  S
C2938      C2939   1.391       .  A
C2938      H2943   1.084       .  S
C2939      C2940   1.441       .  A
C2940      N2941   1.432       .  S
N2941      O2945   1.262       .  A
N2941      O2946   1.260       .  A
N2944      O2948   1.258       .  A
N2944      O2947   1.262       .  A
C2949      C2950   1.380       .  A
C2949      C2954   1.394       .  A
C2949      H2956   1.083       .  S
C2950      C2951   1.437       .  A
C2951      C2952   1.409       .  A
C2951      N2958   1.432       .  S
C2952      C2953   1.392       .  A
C2952      H2957   1.084       .  S
C2953      C2954   1.443       .  A
C2954      N2955   1.436       .  S
N2955      O2959   1.259       .  A
N2955      O2960   1.260       .  A
N2958      O2962   1.262       .  A
C2963      C2964   1.402       .  A
C2963      C2968   1.396       .  A
C2963      H2970   1.082       .  S
C2964      C2965   1.400       .  A
C2965      C2966   1.411       .  A
C2965      N2972   1.431       .  S
C2966      C2967   1.420       .  A
C2966      H2971   1.083       .  S
C2967      C2968   1.408       .  A
C2968      N2969   1.437       .  S
N2969      O2973   1.262       .  A
N2969      O2974   1.264       .  A
N2972      O2976   1.262       .  A
N2972      O2975   1.260       .  A
C2977      C2978   1.407       .  A
C2977      C2982   1.425       .  A
C2977      H2984   1.081       .  S
C2978      C2979   1.417       .  A
C2979      C2980   1.381       .  A
C2979      N2986   1.419       .  S
C2980      C2981   1.383       .  A
C2980      H2985   1.085       .  S
C2981      C2982   1.419       .  A
C2982      N2983   1.435       .  S
N2983      O2987   1.262       .  A
N2983      O2988   1.262       .  A
N2986      O2990   1.257       .  A
N2986      O2989   1.263       .  A
C2991      C2992   1.397       .  A
C2991      C2996   1.406       .  A
C2991      H2998   1.085       .  S
C2992      C2993   1.434       .  A
C2993      C2994   1.422       .  A
C2993      N3000   1.433       .  S
C2994      C2995   1.394       .  A
C2994      H2999   1.083       .  S
C2995      C2996   1.439       .  A
C2996      N2997   1.442       .  S
N2997      O3001   1.259       .  A
N2997      O3002   1.261       .  A
N3000      O3004   1.261       .  A
C3005      C3006   1.393       .  A
C3005      C3010   1.414       .  A
C3005      H3012   1.083       .  S
C3006      C3007   1.450       .  A
C3007      C3008   1.405       .  A
C3007      N3014   1.431       .  S
C3008      C3009   1.389       .  A
C3008      H3013   1.085       .  S
C3009      C3010   1.436       .  A
C3010      N3011   1.427       .  S
N3011      O3015   1.258       .  A
N3011      O3016   1.260       .  A
N3014      O3018   1.258       .  A
N3014      O3017   1.260       .  A
C3019      C3020   1.401       .  A
C3019      C3024   1.410       .  A
C3019      H3026   1.084       .  S
C3020      C3021   1.427       .  A
C3021      C3022   1.398       .  A
C3021      N3028   1.427       .  S
C3022      C3023   1.391       .  A
C3022      H3027   1.084       .  S
C3023      C3024   1.428       .  A
C3024      N3025   1.430       .  S
N3025      O3029   1.262       .  A
N3025      O3030   1.262       .  A
N3028      O3031   1.259       .  A
C3033      C3034   1.394       .  A
C3033      C3038   1.382       .  A
C3033      H3040   1.085       .  S
C3034      C3035   1.419       .  A
C3035      C3036   1.415       .  A
C3035      N3042   1.425       .  S
C3036      C3037   1.405       .  A
C3036      H3041   1.082       .  S
C3037      C3038   1.397       .  A
C3038      N3039   1.403       .  S
N3042      O3046   1.261       .  A
N3042      O3045   1.262       .  A
C3047      C3048   1.396       .  A
C3047      C3052   1.381       .  A
C3047      H3054   1.083       .  S
C3048      C3049   1.404       .  A
C3049      C3050   1.410       .  A
C3049      N3056   1.431       .  S
C3050      C3051   1.411       .  A
C3050      H3055   1.071       .  S
C3051      C3052   1.402       .  A
C3052      N3053   1.424       .  S
N3053      O3057   1.256       .  A
N3053      O3058   1.261       .  A
O3061      C3069   1.274       .  A
O3061     Co3081   2.015   1_554  S
O3062      C3070   1.297       .  A
O3062     Co3082   2.060       .  S
O3063      C3071   1.266       .  A
O3063     Co3083   2.003       .  S
O3064      C3072   1.288       .  A
O3064     Co3084   1.935       .  S
O3065      C3071   1.283       .  A
O3065     Co3592   2.008       .  S
O3066      C3072   1.333       .  A
O3066     Co3591   2.182       .  S
O3067      C3070   1.244       .  A
O3067     Co3084   1.942       .  S
O3068      C3069   1.265       .  A
O3068     Co3083   1.987       .  S
C3069      C3561   1.477       .  S
C3070      C3516   1.528       .  S
C3071      C3533   1.496       .  S
C3072      C3544   1.494       .  S
O3073      C3086   1.299       .  A
O3073     Co3591   2.068       .  S
O3074      C3087   1.286       .  A
O3074     Co3592   2.006       .  S
O3075      C3088   1.290       .  A
O3075     Co3083   2.004       .  S
O3076      C3089   1.293       .  A
O3076     Co3084   2.048       .  S
O3077      C3089   1.248       .  A
O3077     Co3082   1.937       .  S
O3078      C3088   1.286       .  A
O3078     Co3081   2.054   1_554  S
O3079      C3086   1.273       .  A
O3079     Co3084   1.951       .  S
O3080      C3087   1.285       .  A
O3080     Co3083   2.003       .  S
Co3081     O3576   2.173       .  S
Co3081     O3583   2.035       .  S
Co3081     O3085   2.028   1_556  S
Co3082     O3575   2.020       .  S
Co3082     O3584   2.007       .  S
Co3082     O3595   2.059       .  S
Co3083     O3085   2.066       .  S
Co3084     O3595   1.963       .  S
O3085     Co3592   2.052       .  S
O3085     Co3594   1.960   1_554  S
C3086      C3474   1.492       .  S
C3087      C3491   1.473       .  S
C3088      C3502   1.512       .  S
C3089      C3460   1.481       .  S
O3090      C3098   1.257       .  A
O3090     Co3110   1.941       .  S
O3091      C3099   1.288       .  A
O3091     Co3111   2.052       .  S
O3092      C3100   1.299       .  A
O3092     Co3622   2.010       .  S
O3093      C3101   1.282       .  A
O3093     Co3623   2.017   1_554  S
O3094      C3100   1.294       .  A
O3094     Co3111   2.071       .  S
O3095      C3101   1.278       .  A
O3095     Co3110   2.008       .  S
O3096      C3099   1.282       .  A
O3096     Co3113   2.019       .  S
O3097      C3098   1.302       .  A
O3097     Co3112   2.048       .  S
C3098      C3446   1.495       .  S
C3099      C3404   1.508       .  S
C3100      C3432   1.518       .  S
C3101      C3418   1.490       .  S
O3102      C3115   1.277       .  A
O3102     Co3110   2.020       .  S
O3103      C3116   1.263       .  A
O3103     Co3111   1.982       .  S
O3104      C3117   1.260       .  A
O3104     Co3112   1.981       .  S
O3105      C3118   1.284       .  A
O3105     Co3113   1.933       .  S
O3106      C3118   1.329       .  A
O3106     Co3111   2.158       .  S
O3107      C3117   1.293       .  A
O3107     Co3110   2.014       .  S
O3108      C3115   1.263       .  A
O3108     Co3623   2.023   1_554  S
O3109      C3116   1.272       .  A
O3109     Co3622   1.982       .  S
Co3110     O3114   2.039       .  S
Co3111     O3624   2.051       .  S
Co3112     O3602   2.015   1_554  S
Co3112     O3619   1.966   1_554  S
Co3112     O3114   2.058       .  S
Co3113     O3603   2.012       .  S
Co3113     O3618   2.013       .  S
Co3113     O3624   1.985       .  S
O3114     Co3621   2.048   1_554  S
O3114     Co3623   1.971   1_554  S
C3115      C3351   1.511       .  S
C3116      C3393   1.466       .  S
C3117      C3362   1.487       .  S
C3118      C3379   1.489       .  S
O3119      C3127   1.300       .  A
O3119     Co3139   2.051       .  S
O3120      C3128   1.278       .  A
O3120     Co3140   1.998       .  S
O3121      C3129   1.272       .  A
O3122      C3130   1.249       .  A
O3122     Co3142   1.942       .  S
O3123      C3129   1.278       .  A
O3123     Co3140   2.002       .  S
O3124      C3130   1.294       .  A
O3124     Co3139   2.035       .  S
O3125      C3128   1.284       .  A
O3126      C3127   1.263       .  A
O3126     Co3141   1.970       .  S
C3127      C3334   1.514       .  S
C3128      C3295   1.508       .  S
C3129      C3306   1.481       .  S
C3130      C3323   1.481       .  S
O3131      C3144   1.271       .  A
O3131     Co3139   1.986       .  S
O3132      C3145   1.269       .  A
O3132     Co3140   1.980       .  S
O3133      C3146   1.298       .  A
O3133     Co3141   2.053       .  S
O3134      C3147   1.286       .  A
O3135      C3147   1.269       .  A
O3135     Co3140   2.021       .  S
O3136      C3146   1.259       .  A
O3136     Co3139   1.979       .  S
O3137      C3144   1.298       .  A
O3137     Co3142   2.032       .  S
O3138      C3145   1.290       .  A
Co3139     O3143   2.110       .  S
Co3141     O3143   2.098       .  S
Co3142     O3143   2.111       .  S
C3144      C3365   1.502       .  S
C3145      C3488   1.493       .  S
C3146      C3505   1.514       .  S
C3147      C3348   1.525       .  S
O3148      C3156   1.263       .  A
O3148     Co3168   1.979       .  S
O3149      C3157   1.270       .  A
O3150      C3158   1.287       .  A
O3150     Co3170   2.037       .  S
O3151      C3159   1.285       .  A
O3151     Co3171   2.012       .  S
O3152      C3158   1.266       .  A
O3152     Co3169   1.978       .  S
O3153      C3159   1.266       .  A
O3154      C3157   1.283       .  A
O3154     Co3171   2.006       .  S
O3155      C3156   1.289       .  A
O3155     Co3170   2.016       .  S
C3156      C3278   1.490       .  S
C3157      C3239   1.492       .  S
C3158      C3264   1.504       .  S
C3159      C3253   1.481       .  S
O3160      C3173   1.293       .  A
O3161      C3174   1.281       .  A
O3161     Co3169   2.007       .  S
O3162      C3175   1.271       .  A
O3162     Co3170   2.002       .  S
O3163      C3176   1.272       .  A
O3163     Co3171   2.016       .  S
O3164      C3176   1.272       .  A
O3165      C3175   1.291       .  A
O3165     Co3168   2.018       .  S
O3166      C3173   1.259       .  A
O3166     Co3171   1.956       .  S
O3167      C3174   1.270       .  A
O3167     Co3170   1.985       .  S
Co3168     O3172   2.099       .  S
Co3169     O3172   2.095       .  S
Co3170     O3172   2.098       .  S
C3173      C3463   1.493       .  S
C3174      C3390   1.472       .  S
C3175      C3477   1.496       .  S
C3176      C3376   1.480       .  S
O3177      C3185   1.266       .  A
O3177     Co3197   1.982       .  S
O3178      C3186   1.282       .  A
O3178     Co3198   2.016       .  S
O3179      C3187   1.267       .  A
O3180      C3188   1.276       .  A
O3181      C3187   1.302       .  A
O3181     Co3198   2.039       .  S
O3182      C3188   1.279       .  A
O3182     Co3197   1.987       .  S
O3183      C3186   1.270       .  A
O3183     Co3200   2.009   1_655  S
O3184      C3185   1.267       .  A
O3184     Co3199   1.992       .  S
C3185      C3558   1.479       .  S
C3186      C3435   1.525       .  S
C3187      C3449   1.500       .  S
C3188      C3547   1.494       .  S
O3189      C3202   1.252       .  A
O3189     Co3197   1.973       .  S
O3190      C3203   1.246       .  A
O3190     Co3198   1.929       .  S
O3191      C3204   1.280       .  A
O3191     Co3199   1.998       .  S
O3192      C3205   1.280       .  A
O3192     Co3200   1.999   1_655  S
O3193      C3205   1.284       .  A
O3193     Co3198   2.048       .  S
O3194      C3204   1.281       .  A
O3194     Co3197   2.037       .  S
O3195      C3202   1.281       .  A
O3196      C3203   1.290       .  A
Co3198     O3201   2.110       .  S
Co3200     O3201   2.095   1_455  S
C3202      C3281   1.482       .  S
C3203      C3320   1.476       .  S
C3204      C3337   1.487       .  S
C3205      C3267   1.494       .  S
O3206      C3214   1.271       .  A
O3206     Co3226   2.007       .  S
O3207      C3215   1.283       .  A
O3208      C3216   1.286       .  A
O3208     Co3228   2.024       .  S
O3209      C3217   1.281       .  A
O3209     Co3229   2.025       .  S
O3210      C3216   1.261       .  A
O3210     Co3227   1.994       .  S
O3211      C3217   1.270       .  A
O3212      C3215   1.280       .  A
O3212     Co3229   2.006       .  S
O3213      C3214   1.287       .  A
O3213     Co3228   2.010       .  S
C3214      C3530   1.501       .  S
C3215      C3407   1.496       .  S
C3216      C3519   1.509       .  S
C3217      C3421   1.495       .  S
O3218      C3231   1.287       .  A
O3219      C3232   1.292       .  A
O3219     Co3227   2.027       .  S
O3220      C3233   1.273       .  A
O3220     Co3228   1.954       .  S
O3221      C3234   1.269       .  A
O3221     Co3229   2.002       .  S
O3222      C3234   1.277       .  A
O3223      C3233   1.291       .  A
O3223     Co3226   2.010       .  S
O3224      C3231   1.274       .  A
O3224     Co3229   2.009       .  S
O3225      C3232   1.279       .  A
O3225     Co3228   2.016       .  S
Co3226     O3230   2.115       .  S
Co3227     O3230   2.097       .  S
Co3228     O3230   1.950       .  S
C3231      C3292   1.522       .  S
C3232      C3250   1.493       .  S
C3233      C3309   1.481       .  S
C3234      C3236   1.483       .  S
C3235      C3236   1.406       .  A
C3235      C3240   1.398       .  A
C3235      H3242   1.080       .  S
C3236      C3237   1.400       .  A
C3237      C3238   1.405       .  A
C3237      N3244   1.429       .  S
C3238      C3239   1.418       .  A
C3238      H3243   1.079       .  S
C3239      C3240   1.405       .  A
C3240      N3241   1.426       .  S
N3241      O3245   1.262       .  A
N3241      O3246   1.261       .  A
N3244      O3247   1.262       .  A
C3249      C3250   1.417       .  A
C3249      C3254   1.423       .  A
C3249      H3256   1.069       .  S
C3250      C3251   1.408       .  A
C3251      C3252   1.390       .  A
C3251      N3258   1.423       .  S
C3252      C3253   1.403       .  A
C3252      H3257   1.084       .  S
C3253      C3254   1.394       .  A
C3254      N3255   1.432       .  S
N3255      O3259   1.257       .  A
N3255      O3260   1.257   1_565  A
N3258      O3262   1.262       .  A
N3258      O3261   1.261       .  A
C3263      C3264   1.413       .  A
C3263      C3268   1.393       .  A
C3263      H3270   1.079       .  S
C3264      C3265   1.405       .  A
C3265      C3266   1.414       .  A
C3265      N3272   1.425       .  S
C3266      C3267   1.408       .  A
C3266      H3271   1.069       .  S
C3267      C3268   1.400       .  A
C3268      N3269   1.425       .  S
N3269      O3273   1.257       .  A
N3269      O3274   1.261       .  A
N3272      O3276   1.261       .  A
N3272      O3275   1.260       .  A
C3277      C3278   1.395       .  A
C3277      C3282   1.403       .  A
C3277      H3284   1.084       .  S
C3278      C3279   1.430       .  A
C3279      C3280   1.397       .  A
C3279      N3286   1.426       .  S
C3280      C3281   1.388       .  A
C3280      H3285   1.085       .  S
C3281      C3282   1.429       .  A
C3282      N3283   1.429       .  S
N3283      O3287   1.261       .  A
N3283      O3288   1.262       .  A
N3286      O3290   1.259       .  A
N3286      O3289   1.260       .  A
C3291      C3292   1.415       .  A
C3291      C3296   1.399       .  A
C3291      H3298   1.082       .  S
C3292      C3293   1.409       .  A
C3293      C3294   1.413       .  A
C3293      N3300   1.426       .  S
C3294      C3295   1.406       .  A
C3294      H3299   1.121   1_565  S
C3295      C3296   1.405       .  A
C3296      N3297   1.429       .  S
N3297      O3301   1.262       .  A
N3297      O3302   1.261       .  A
N3300      O3304   1.261   1_565  A
N3300      O3303   1.261       .  A
C3305      C3306   1.414       .  A
C3305      C3310   1.397       .  A
C3305      H3312   1.081       .  S
C3306      C3307   1.416       .  A
C3307      C3308   1.389       .  A
C3307      N3314   1.436       .  S
C3308      C3309   1.415       .  A
C3308      H3313   1.085       .  S
C3309      C3310   1.399       .  A
C3310      N3311   1.428       .  S
N3311      O3315   1.260       .  A
N3311      O3316   1.261       .  A
N3314      O3318   1.259       .  A
N3314      O3317   1.260       .  A
C3319      C3320   1.385       .  A
C3319      C3324   1.396       .  A
C3319      H3326   1.084       .  S
C3320      C3321   1.436       .  A
C3321      C3322   1.394       .  A
C3321      N3328   1.432       .  S
C3322      C3323   1.384       .  A
C3322      H3327   1.084       .  S
C3323      C3324   1.439       .  A
C3324      N3325   1.431       .  S
N3328      O3332   1.261       .  A
N3328      O3331   1.262       .  A
C3333      C3334   1.402       .  A
C3333      C3338   1.424       .  A
C3333      H3340   1.074       .  S
C3334      C3335   1.438       .  A
C3335      C3336   1.395       .  A
C3335      N3342   1.433       .  S
C3336      C3337   1.386       .  A
C3336      H3341   1.084       .  S
C3337      C3338   1.411       .  A
C3338      N3339   1.428       .  S
N3339      O3343   1.255       .  A
N3339      O3344   1.262       .  A
N3342      O3346   1.259       .  A
N3342      O3345   1.262       .  A
C3347      C3348   1.426       .  A
C3347      C3352   1.421       .  A
C3347      H3354   1.083       .  S
C3348      C3349   1.411       .  A
C3349      C3350   1.410       .  A
C3349      N3356   1.426       .  S
C3350      C3351   1.407       .  A
C3350      H3355   1.073       .  S
C3351      C3352   1.405       .  A
C3352      N3353   1.428       .  S
N3353      O3357   1.262       .  A
N3353      O3358   1.262       .  A
N3356      O3360   1.262       .  A
N3356      O3359   1.261       .  A
C3361      C3362   1.370       .  A
C3361      C3366   1.385       .  A
C3361      H3368   1.086       .  S
C3362      C3363   1.428       .  A
C3363      C3364   1.416       .  A
C3363      N3370   1.427       .  S
C3364      C3365   1.402       .  A
C3364      H3369   1.084       .  S
C3365      C3366   1.431       .  A
C3366      N3367   1.416       .  S
N3367      O3371   1.262       .  A
N3367      O3372   1.261       .  A
N3370      O3374   1.260   1_554  A
N3370      O3373   1.262       .  A
C3375      C3376   1.409       .  A
C3375      C3380   1.415       .  A
C3375      H3382   1.084       .  S
C3376      C3377   1.406       .  A
C3377      C3378   1.376       .  A
C3377      N3384   1.417       .  S
C3378      C3379   1.394       .  A
C3378      H3383   1.083       .  S
C3379      C3380   1.416       .  A
C3380      N3381   1.425       .  S
N3381      O3385   1.262       .  A
N3381      O3386   1.261       .  A
N3384      O3388   1.258       .  A
N3384      O3387   1.262       .  A
C3389      C3390   1.407       .  A
C3389      C3394   1.422       .  A
C3389      H3396   1.082       .  S
C3390      C3391   1.408       .  A
C3391      C3392   1.372       .  A
C3391      N3398   1.423       .  S
C3392      C3393   1.388       .  A
C3392      H3397   1.087       .  S
C3393      C3394   1.422       .  A
C3394      N3395   1.441       .  S
N3395      O3399   1.261       .  A
N3395      O3400   1.261       .  A
N3398      O3402   1.261       .  A
N3398      O3401   1.262       .  A
C3403      C3404   1.403       .  A
C3403      C3408   1.423       .  A
C3403      H3410   1.083       .  S
C3404      C3405   1.428       .  A
C3405      C3406   1.396       .  A
C3405      N3412   1.425       .  S
C3406      C3407   1.389       .  A
C3406      H3411   1.086       .  S
C3407      C3408   1.419       .  A
C3408      N3409   1.428       .  S
N3409      O3414   1.262       .  A
N3412      O3416   1.262       .  A
N3412      O3415   1.262       .  A
C3417      C3418   1.395       .  A
C3417      C3422   1.390       .  A
C3417      H3424   1.085       .  S
C3418      C3419   1.418       .  A
C3419      C3420   1.425       .  A
C3419      N3426   1.427       .  S
C3420      C3421   1.405       .  A
C3420      H3425   1.077       .  S
C3421      C3422   1.404       .  A
C3422      N3423   1.411       .  S
N3423      O3427   1.259       .  A
N3423      O3428   1.262       .  A
N3426      O3430   1.257       .  A
N3426      O3429   1.261       .  A
C3431      C3432   1.426       .  A
C3431      C3436   1.430       .  A
C3431      H3438   1.082       .  S
C3432      C3433   1.409       .  A
C3433      C3434   1.399       .  A
C3433      N3440   1.429       .  S
C3434      C3435   1.407       .  A
C3434      H3439   1.072       .  S
C3435      C3436   1.409       .  A
C3436      N3437   1.427       .  S
N3437      O3441   1.262       .  A
N3437      O3442   1.261       .  A
N3440      O3444   1.262       .  A
N3440      O3443   1.262       .  A
C3445      C3446   1.389       .  A
C3445      C3450   1.405       .  A
C3445      H3452   1.085       .  S
C3446      C3447   1.440       .  A
C3447      C3448   1.400       .  A
C3447      N3454   1.433       .  S
C3448      C3449   1.387       .  A
C3448      H3453   1.085       .  S
C3449      C3450   1.439       .  A
C3450      N3451   1.431       .  S
N3451      O3455   1.262       .  A
N3451      O3456   1.260   1_655  A
N3454      O3458   1.259       .  A
N3454      O3457   1.262       .  A
C3459      C3460   1.377       .  A
C3459      C3464   1.389       .  A
C3459      H3466   1.080       .  S
C3460      C3461   1.438       .  A
C3461      C3462   1.409       .  A
C3461      N3468   1.433       .  S
C3462      C3463   1.394       .  A
C3462      H3467   1.084       .  S
C3463      C3464   1.435       .  A
C3464      N3465   1.435       .  S
N3465      O3469   1.260       .  A
N3465      O3470   1.261       .  A
N3468      O3472   1.262       .  A
N3468      O3981   1.260       .  A
O3471      N3978   1.260   1_554  A
C3473      C3474   1.399       .  A
C3473      C3478   1.400       .  A
C3473      H3480   1.070       .  S
C3474      C3475   1.402       .  A
C3475      C3476   1.412       .  A
C3475      N3482   1.429       .  S
C3476      C3477   1.422       .  A
C3476      H3481   1.083       .  S
C3477      C3478   1.403       .  A
C3478      N3479   1.427       .  S
N3479      O3483   1.261       .  A
N3479      O3484   1.261       .  A
N3482      O3486   1.261       .  A
N3482      O3485   1.261       .  A
C3487      C3488   1.405       .  A
C3487      C3492   1.424       .  A
C3487      H3494   1.082       .  S
C3488      C3489   1.420       .  A
C3489      C3490   1.380       .  A
C3489      N3496   1.418       .  S
C3490      C3491   1.380       .  A
C3490      H3495   1.086       .  S
C3491      C3492   1.419       .  A
C3492      N3493   1.434       .  S
N3493      O3497   1.262   1_554  A
N3493      O3498   1.262       .  A
N3496      O3500   1.258       .  A
N3496      O3499   1.263       .  A
C3501      C3502   1.396       .  A
C3501      C3506   1.405       .  A
C3501      H3508   1.085       .  S
C3502      C3503   1.432       .  A
C3503      C3504   1.420       .  A
C3503      N3510   1.434       .  S
C3504      C3505   1.395       .  A
C3504      H3509   1.083       .  S
C3505      C3506   1.440       .  A
C3506      N3507   1.441       .  S
N3507      O3511   1.259       .  A
N3507      O3512   1.261       .  A
N3510      O3514   1.261       .  A
N3510      O4023   1.261   1_554  A
O3513      N4020   1.258       .  A
C3515      C3516   1.395       .  A
C3515      C3520   1.417       .  A
C3515      H3522   1.083       .  S
C3516      C3517   1.454       .  A
C3517      C3518   1.404       .  A
C3517      N3524   1.429       .  S
C3518      C3519   1.384       .  A
C3518      H3523   1.085       .  S
C3519      C3520   1.436       .  A
C3520      N3521   1.427       .  S
N3521      O3525   1.259       .  A
N3521      O3526   1.260       .  A
N3524      O3528   1.256       .  A
N3524      O3527   1.260       .  A
C3529      C3530   1.399       .  A
C3529      C3534   1.409       .  A
C3529      H3536   1.084       .  S
C3530      C3531   1.429       .  A
C3531      C3532   1.398       .  A
C3531      N3538   1.429       .  S
C3532      C3533   1.392       .  A
C3532      H3537   1.085       .  S
C3533      C3534   1.426       .  A
C3534      N3535   1.429       .  S
N3535      O3539   1.262       .  A
N3535      O3540   1.261       .  A
N3538      O3541   1.261       .  A
C3543      C3544   1.393       .  A
C3543      C3548   1.388       .  A
C3543      H3550   1.085       .  S
C3544      C3545   1.420       .  A
C3545      C3546   1.418       .  A
C3545      N3552   1.425       .  S
C3546      C3547   1.406       .  A
C3546      H3551   1.082       .  S
C3547      C3548   1.399       .  A
C3548      N3549   1.401       .  S
N3552      O3556   1.261       .  A
N3552      O3555   1.262       .  A
C3557      C3558   1.397       .  A
C3557      C3562   1.384       .  A
C3557      H3564   1.083       .  S
C3558      C3559   1.408       .  A
C3559      C3560   1.415       .  A
C3559      N3566   1.430       .  S
C3560      C3561   1.413       .  A
C3560      H3565   1.077       .  S
C3561      C3562   1.404       .  A
C3562      N3563   1.424       .  S
N3563      O3567   1.257       .  A
N3563      O3568   1.261       .  A
O3571      C3579   1.279       .  A
O3571     Co3591   2.041       .  S
O3572      C3580   1.294       .  A
O3572     Co3592   2.056   1_556  S
O3573      C3581   1.271       .  A
O3573     Co3593   2.016       .  S
O3574      C3582   1.287       .  A
O3574     Co3594   1.935       .  S
O3575      C3581   1.288       .  A
O3576      C3582   1.333       .  A
O3577      C3580   1.251       .  A
O3577     Co3594   1.966       .  S
O3578      C3579   1.254       .  A
O3578     Co3593   1.942       .  S
C3579      C4071   1.481       .  S
C3580      C4026   1.527       .  S
C3581      C4043   1.505       .  S
C3582      C4054   1.479       .  S
O3583      C3596   1.295       .  A
O3584      C3597   1.284       .  A
O3585      C3598   1.300       .  A
O3585     Co3593   2.000       .  S
O3586      C3599   1.289       .  A
O3586     Co3594   2.036       .  S
O3587      C3599   1.249       .  A
O3587     Co3592   1.944   1_556  S
O3588      C3598   1.284       .  A
O3588     Co3591   2.050       .  S
O3589      C3596   1.273       .  A
O3589     Co3594   1.962       .  S
O3590      C3597   1.285       .  A
O3590     Co3593   2.006       .  S
Co3591     O3595   2.049       .  S
Co3593     O3595   2.059       .  S
C3596      C3984   1.489       .  S
C3597      C4001   1.479       .  S
C3598      C4012   1.510       .  S
C3599      C3970   1.475       .  S
O3600      C3608   1.259       .  A
O3600     Co3620   1.950       .  S
O3601      C3609   1.291       .  A
O3601     Co3621   2.049       .  S
O3602      C3610   1.301       .  A
O3603      C3611   1.282       .  A
O3604      C3610   1.295       .  A
O3604     Co3621   2.070       .  S
O3605      C3611   1.281       .  A
O3605     Co3620   2.013       .  S
O3606      C3609   1.285       .  A
O3606     Co3623   2.020       .  S
O3607      C3608   1.304       .  A
O3607     Co3622   2.058       .  S
C3608      C3956   1.504       .  S
C3609      C3914   1.506       .  S
C3610      C3942   1.518       .  S
C3611      C3928   1.489       .  S
O3612      C3625   1.276       .  A
O3612     Co3620   2.014       .  S
O3613      C3626   1.271       .  A
O3613     Co3621   2.013       .  S
O3614      C3627   1.257       .  A
O3614     Co3622   1.968       .  S
O3615      C3628   1.281       .  A
O3615     Co3623   1.896       .  S
O3616      C3628   1.339       .  A
O3616     Co3621   2.191       .  S
O3617      C3627   1.291       .  A
O3617     Co3620   2.034       .  S
O3618      C3625   1.263       .  A
O3619      C3626   1.269       .  A
Co3620     O3624   2.049       .  S
Co3622     O3624   2.057       .  S
C3625      C3861   1.505       .  S
C3626      C3903   1.482       .  S
C3627      C3872   1.485       .  S
C3628      C3889   1.474       .  S
O3629      C3637   1.286       .  A
O3629     Co3649   2.021       .  S
O3630      C3638   1.274       .  A
O3630     Co3650   1.991       .  S
O3631      C3639   1.271       .  A
O3632      C3640   1.249       .  A
O3632     Co3652   1.936       .  S
O3633      C3639   1.276       .  A
O3633     Co3650   1.989       .  S
O3634      C3640   1.289       .  A
O3634     Co3649   2.023       .  S
O3635      C3638   1.284       .  A
O3636      C3637   1.280       .  A
O3636     Co3651   2.044       .  S
C3637      C3844   1.514       .  S
C3638      C3805   1.501       .  S
C3639      C3816   1.470       .  S
C3640      C3833   1.474       .  S
O3641      C3654   1.265       .  A
O3641     Co3649   1.968       .  S
O3642      C3655   1.267       .  A
O3642     Co3650   1.983       .  S
O3643      C3656   1.284       .  A
O3643     Co3651   2.026       .  S
O3644      C3657   1.285       .  A
O3645      C3657   1.271       .  A
O3645     Co3650   2.022       .  S
O3646      C3656   1.267       .  A
O3646     Co3649   2.004       .  S
O3647      C3654   1.295       .  A
O3647     Co3652   2.033       .  S
O3648      C3655   1.294       .  A
Co3649     O3653   2.108       .  S
Co3651     O3653   2.107       .  S
Co3652     O3653   2.116       .  S
C3654      C3875   1.506       .  S
C3655      C3998   1.506       .  S
C3656      C4015   1.508       .  S
C3657      C3858   1.520       .  S
O3658      C3666   1.265       .  A
O3658     Co3678   1.968       .  S
O3659      C3667   1.253       .  A
O3660      C3668   1.292       .  A
O3660     Co3680   2.018       .  S
O3661      C3669   1.284       .  A
O3661     Co3681   2.015       .  S
O3662      C3668   1.285       .  A
O3662     Co3679   2.014       .  S
O3663      C3669   1.266       .  A
O3664      C3667   1.257       .  A
O3664     Co3681   1.998       .  S
O3665      C3666   1.298       .  A
O3665     Co3680   2.035       .  S
C3666      C3788   1.494       .  S
C3667      C3749   1.507       .  S
C3668      C3774   1.500       .  S
C3669      C3763   1.481       .  S
O3670      C3683   1.290       .  A
O3671      C3684   1.279       .  A
O3671     Co3679   1.999       .  S
O3672      C3685   1.263       .  A
O3672     Co3680   1.982       .  S
O3673      C3686   1.314       .  A
O3673     Co3681   2.145       .  S
O3674      C3686   1.285       .  A
O3675      C3685   1.292       .  A
O3675     Co3678   2.032       .  S
O3676      C3683   1.244       .  A
O3676     Co3681   1.911       .  S
O3677      C3684   1.276       .  A
O3677     Co3680   1.999       .  S
Co3678     O3682   2.072       .  S
Co3679     O3682   1.955       .  S
Co3680     O3682   2.054       .  S
C3683      C3973   1.496       .  S
C3684      C3900   1.478       .  S
C3685      C3987   1.490       .  S
C3686      C3886   1.476       .  S
O3687      C3695   1.258       .  A
O3687     Co3707   1.971       .  S
O3688      C3696   1.281       .  A
O3688     Co3708   2.012       .  S
O3689      C3697   1.266       .  A
O3690      C3698   1.272       .  A
O3691      C3697   1.301       .  A
O3691     Co3708   2.042       .  S
O3692      C3698   1.270       .  A
O3692     Co3707   1.969       .  S
O3693      C3696   1.267       .  A
O3693     Co3710   1.998   1_655  S
O3694      C3695   1.278       .  A
O3694     Co3709   2.007       .  S
C3695      C4068   1.469       .  S
C3696      C3945   1.523       .  S
C3697      C3959   1.510       .  S
C3698      C4057   1.478       .  S
O3699      C3712   1.255       .  A
O3699     Co3707   1.980       .  S
O3700      C3713   1.246       .  A
O3700     Co3708   1.937       .  S
O3701      C3714   1.282       .  A
O3701     Co3709   2.027       .  S
O3702      C3715   1.281       .  A
O3702     Co3710   1.995   1_655  S
O3703      C3715   1.285       .  A
O3703     Co3708   2.054       .  S
O3704      C3714   1.283       .  A
O3704     Co3707   2.045       .  S
O3705      C3712   1.286       .  A
O3706      C3713   1.284       .  A
Co3708     O3711   2.122   1_655  S
Co3710     O3711   2.098       .  S
C3712      C3791   1.489       .  S
C3713      C3830   1.468       .  S
C3714      C3847   1.519       .  S
C3715      C3777   1.494       .  S
O3716      C3724   1.268       .  A
O3716     Co3736   1.989       .  S
O3717      C3725   1.282       .  A
O3718      C3726   1.300       .  A
O3718     Co3738   2.050       .  S
O3719      C3727   1.281       .  A
O3719     Co3739   2.029       .  S
O3720      C3726   1.259       .  A
O3720     Co3737   1.976       .  S
O3721      C3727   1.270       .  A
O3722      C3725   1.278       .  A
O3722     Co3739   2.003       .  S
O3723      C3724   1.299       .  A
O3723     Co3738   2.046       .  S
C3724      C4040   1.520       .  S
C3725      C3917   1.491       .  S
C3726      C4029   1.507       .  S
C3727      C3931   1.497       .  S
O3728      C3741   1.289       .  A
O3729      C3742   1.289       .  A
O3729     Co3737   2.037       .  S
O3730      C3743   1.266       .  A
O3730     Co3738   1.964       .  S
O3731      C3744   1.271       .  A
O3731     Co3739   2.021       .  S
O3732      C3744   1.279       .  A
O3733      C3743   1.279       .  A
O3733     Co3736   1.997       .  S
O3734      C3741   1.274       .  A
O3734     Co3739   2.001       .  S
O3735      C3742   1.268       .  A
O3735     Co3738   1.998       .  S
Co3736     O3740   2.112       .  S
Co3737     O3740   2.101       .  S
Co3738     O3740   2.103       .  S
C3741      C3802   1.520       .  S
C3742      C3760   1.500       .  S
C3743      C3819   1.477       .  S
C3744      C3746   1.496       .  S
C3745      C3746   1.410       .  A
C3745      C3750   1.410       .  A
C3745      H3752   1.082       .  S
C3746      C3747   1.400       .  A
C3747      C3748   1.404       .  A
C3747      N3754   1.429       .  S
C3748      C3749   1.416       .  A
C3748      H3753   1.071       .  S
C3749      C3750   1.412       .  A
C3750      N3751   1.426       .  S
N3751      O3755   1.262       .  A
N3751      O3756   1.261       .  A
N3754      O3757   1.262       .  A
C3759      C3760   1.417       .  A
C3759      C3764   1.426       .  A
C3759      H3766   1.071       .  S
C3760      C3761   1.414       .  A
C3761      C3762   1.393       .  A
C3761      N3768   1.425       .  S
C3762      C3763   1.402       .  A
C3762      H3767   1.085       .  S
C3763      C3764   1.395       .  A
C3764      N3765   1.434       .  S
N3765      O3769   1.257       .  A
N3765      O3770   1.257   1_565  A
N3768      O3772   1.261       .  A
N3768      O3771   1.261       .  A
C3773      C3774   1.412       .  A
C3773      C3778   1.400       .  A
C3773      H3780   1.090       .  S
C3774      C3775   1.406       .  A
C3775      C3776   1.390       .  A
C3775      N3782   1.424       .  S
C3776      C3777   1.386       .  A
C3776      H3781   1.241       .  S
C3777      C3778   1.409       .  A
C3778      N3779   1.427       .  S
N3779      O3783   1.259       .  A
N3779      O3784   1.262       .  A
N3782      O3786   1.261       .  A
N3782      O3785   1.261       .  A
C3787      C3788   1.394       .  A
C3787      C3792   1.405       .  A
C3787      H3794   1.084       .  S
C3788      C3789   1.433       .  A
C3789      C3790   1.396       .  A
C3789      N3796   1.428       .  S
C3790      C3791   1.386       .  A
C3790      H3795   1.085       .  S
C3791      C3792   1.431       .  A
C3792      N3793   1.428       .  S
N3793      O3797   1.259       .  A
N3793      O3798   1.261       .  A
N3796      O3800   1.257       .  A
N3796      O3799   1.259       .  A
C3801      C3802   1.413       .  A
C3801      C3806   1.393       .  A
C3801      H3808   1.075       .  S
C3802      C3803   1.410       .  A
C3803      C3804   1.421       .  A
C3803      N3810   1.426       .  S
C3804      C3805   1.411       .  A
C3804      H3809   1.069       .  S
C3805      C3806   1.401       .  A
C3806      N3807   1.429       .  S
N3807      O3811   1.261       .  A
N3807      O3812   1.262       .  A
N3810      O3814   1.262   1_565  A
N3810      O3813   1.261       .  A
C3815      C3816   1.411       .  A
C3815      C3820   1.397       .  A
C3815      H3822   1.081       .  S
C3816      C3817   1.406       .  A
C3817      C3818   1.387       .  A
C3817      N3824   1.433       .  S
C3818      C3819   1.414       .  A
C3818      H3823   1.085       .  S
C3819      C3820   1.404       .  A
C3820      N3821   1.430       .  S
N3821      O3825   1.260       .  A
N3821      O3826   1.262       .  A
N3824      O3828   1.257       .  A
N3824      O3827   1.260       .  A
C3829      C3830   1.381       .  A
C3829      C3834   1.388       .  A
C3829      H3836   1.083       .  S
C3830      C3831   1.431       .  A
C3831      C3832   1.396       .  A
C3831      N3838   1.432       .  S
C3832      C3833   1.389       .  A
C3832      H3837   1.083       .  S
C3833      C3834   1.438       .  A
C3834      N3835   1.432       .  S
N3838      O3842   1.261       .  A
N3838      O3841   1.262       .  A
C3843      C3844   1.410       .  A
C3843      C3848   1.429       .  A
C3843      H3850   1.079       .  S
C3844      C3845   1.407       .  A
C3845      C3846   1.394       .  A
C3845      N3852   1.418       .  S
C3846      C3847   1.396       .  A
C3846      H3851   1.107       .  S
C3847      C3848   1.423       .  A
C3848      N3849   1.426       .  S
N3849      O3853   1.257       .  A
N3849      O3854   1.259       .  A
N3852      O3856   1.262       .  A
N3852      O3855   1.258       .  A
C3857      C3858   1.426       .  A
C3857      C3862   1.420       .  A
C3857      H3864   1.083       .  S
C3858      C3859   1.409       .  A
C3859      C3860   1.405       .  A
C3859      N3866   1.425       .  S
C3860      C3861   1.405       .  A
C3860      H3865   1.072       .  S
C3861      C3862   1.405       .  A
C3862      N3863   1.428       .  S
N3863      O3867   1.262       .  A
N3863      O3868   1.262       .  A
N3866      O3870   1.262       .  A
N3866      O3869   1.261       .  A
C3871      C3872   1.378       .  A
C3871      C3876   1.391       .  A
C3871      H3878   1.086       .  S
C3872      C3873   1.435       .  A
C3873      C3874   1.420       .  A
C3873      N3880   1.438       .  S
C3874      C3875   1.398       .  A
C3874      H3879   1.083       .  S
C3875      C3876   1.436       .  A
C3876      N3877   1.426       .  S
N3877      O3881   1.260       .  A
N3877      O3882   1.262       .  A
N3880      O3884   1.261       .  A
N3880      O3883   1.261       .  A
C3885      C3886   1.405       .  A
C3885      C3890   1.402       .  A
C3885      H3892   1.084       .  S
C3886      C3887   1.407       .  A
C3887      C3888   1.378       .  A
C3887      N3894   1.415       .  S
C3888      C3889   1.393       .  A
C3888      H3893   1.084       .  S
C3889      C3890   1.414       .  A
C3890      N3891   1.426       .  S
N3891      O3895   1.262       .  A
N3891      O3896   1.261       .  A
N3894      O3898   1.257       .  A
N3894      O3897   1.262       .  A
C3899      C3900   1.407       .  A
C3899      C3904   1.428       .  A
C3899      H3906   1.083       .  S
C3900      C3901   1.403       .  A
C3901      C3902   1.371       .  A
C3901      N3908   1.420       .  S
C3902      C3903   1.391       .  A
C3902      H3907   1.087       .  S
C3903      C3904   1.432       .  A
C3904      N3905   1.444       .  S
N3905      O3909   1.263   1_556  A
N3905      O3910   1.260   1_556  A
N3908      O3912   1.262       .  A
N3908      O3911   1.262       .  A
C3913      C3914   1.403       .  A
C3913      C3918   1.423       .  A
C3913      H3920   1.083       .  S
C3914      C3915   1.429       .  A
C3915      C3916   1.392       .  A
C3915      N3922   1.424       .  S
C3916      C3917   1.384       .  A
C3916      H3921   1.086       .  S
C3917      C3918   1.420       .  A
C3918      N3919   1.429       .  S
N3919      O3924   1.262       .  A
N3922      O3926   1.262       .  A
N3922      O3925   1.262       .  A
C3927      C3928   1.392       .  A
C3927      C3932   1.387       .  A
C3927      H3934   1.085       .  S
C3928      C3929   1.422       .  A
C3929      C3930   1.428       .  A
C3929      N3936   1.430       .  S
C3930      C3931   1.406       .  A
C3930      H3935   1.080       .  S
C3931      C3932   1.405       .  A
C3932      N3933   1.410       .  S
N3933      O3937   1.260       .  A
N3933      O3938   1.261       .  A
N3936      O3940   1.259       .  A
N3936      O3939   1.262       .  A
C3941      C3942   1.428       .  A
C3941      C3946   1.430       .  A
C3941      H3948   1.081       .  S
C3942      C3943   1.407       .  A
C3943      C3944   1.397       .  A
C3943      N3950   1.428       .  S
C3944      C3945   1.408       .  A
C3944      H3949   1.074       .  S
C3945      C3946   1.408       .  A
C3946      N3947   1.428       .  S
N3947      O3951   1.262       .  A
N3947      O3952   1.261       .  A
N3950      O3954   1.261       .  A
N3950      O3953   1.262       .  A
C3955      C3956   1.390       .  A
C3955      C3960   1.410       .  A
C3955      H3962   1.085       .  S
C3956      C3957   1.441       .  A
C3957      C3958   1.404       .  A
C3957      N3964   1.433       .  S
C3958      C3959   1.390       .  A
C3958      H3963   1.085       .  S
C3959      C3960   1.443       .  A
C3960      N3961   1.436       .  S
N3961      O3965   1.262       .  A
N3961      O3966   1.260   1_655  A
N3964      O3968   1.259       .  A
N3964      O3967   1.263       .  A
C3969      C3970   1.377       .  A
C3969      C3974   1.387       .  A
C3969      H3976   1.085       .  S
C3970      C3971   1.436       .  A
C3971      C3972   1.408       .  A
C3971      N3978   1.432       .  S
C3972      C3973   1.393       .  A
C3972      H3977   1.084       .  S
C3973      C3974   1.444       .  A
C3974      N3975   1.436       .  S
N3975      O3979   1.260       .  A
N3975      O3980   1.260       .  A
N3978      O3982   1.262       .  A
C3983      C3984   1.406       .  A
C3983      C3988   1.392       .  A
C3983      H3990   1.083       .  S
C3984      C3985   1.403       .  A
C3985      C3986   1.416       .  A
C3985      N3992   1.431       .  S
C3986      C3987   1.419       .  A
C3986      H3991   1.081       .  S
C3987      C3988   1.405       .  A
C3988      N3989   1.428       .  S
N3989      O3993   1.260       .  A
N3989      O3994   1.262       .  A
N3992      O3996   1.262       .  A
N3992      O3995   1.260       .  A
C3997      C3998   1.406       .  A
C3997      C4002   1.426       .  A
C3997      H4004   1.082       .  S
C3998      C3999   1.426       .  A
C3999      C4000   1.385       .  A
C3999      N4006   1.419       .  S
C4000      C4001   1.381       .  A
C4000      H4005   1.086       .  S
C4001      C4002   1.419       .  A
C4002      N4003   1.435       .  S
N4003      O4007   1.262       .  A
N4003      O4008   1.263       .  A
N4006      O4010   1.262       .  A
N4006      O4009   1.263       .  A
C4011      C4012   1.388       .  A
C4011      C4016   1.392       .  A
C4011      H4018   1.084       .  S
C4012      C4013   1.437       .  A
C4013      C4014   1.423       .  A
C4013      N4020   1.438       .  S
C4014      C4015   1.408       .  A
C4014      H4019   1.084       .  S
C4015      C4016   1.423       .  A
C4016      N4017   1.423       .  S
N4017      O4021   1.257       .  A
N4017      O4022   1.260       .  A
N4020      O4024   1.259       .  A
C4025      C4026   1.398       .  A
C4025      C4030   1.420       .  A
C4025      H4032   1.084       .  S
C4026      C4027   1.449       .  A
C4027      C4028   1.402       .  A
C4027      N4034   1.432       .  S
C4028      C4029   1.384       .  A
C4028      H4033   1.085       .  S
C4029      C4030   1.442       .  A
C4030      N4031   1.430       .  S
N4031      O4035   1.260       .  A
N4031      O4036   1.261       .  A
N4034      O4038   1.261       .  A
N4034      O4037   1.261       .  A
C4039      C4040   1.402       .  A
C4039      C4044   1.421       .  A
C4039      H4046   1.084       .  S
C4040      C4041   1.437       .  A
C4041      C4042   1.396       .  A
C4041      N4048   1.431       .  S
C4042      C4043   1.388       .  A
C4042      H4047   1.085       .  S
C4043      C4044   1.431       .  A
C4044      N4045   1.429       .  S
N4045      O4049   1.262       .  A
N4045      O4050   1.259       .  A
N4048      O4051   1.262       .  A
C4053      C4054   1.393       .  A
C4053      C4058   1.374       .  A
C4053      H4060   1.085       .  S
C4054      C4055   1.418       .  A
C4055      C4056   1.415       .  A
C4055      N4062   1.426       .  S
C4056      C4057   1.405       .  A
C4056      H4061   1.081       .  S
C4057      C4058   1.393       .  A
C4058      N4059   1.402       .  S
N4062      O4066   1.261       .  A
N4062      O4065   1.262       .  A
C4067      C4068   1.371       .  A
C4067      C4072   1.365       .  A
C4067      H4074   1.110       .  S
C4068      C4069   1.420       .  A
C4069      C4070   1.428       .  A
C4069      N4076   1.438       .  S
C4070      C4071   1.415       .  A
C4070      H4075   1.084       .  S
C4071      C4072   1.415       .  A
C4072      N4073   1.424       .  S
N4073      O4077   1.261       .  A
N4073      O4078   1.260       .  A
