geometry optimzed in LAMMPS
_audit_creation_date              2020-11-30 
_audit_creation_method            'lammps2cif' 
_symmetry_space_group_name_H-M    'P1' 
_symmetry_Int_Tables_number       1 
_symmetry_cell_setting            triclinic 
loop_ 
_symmetry_equiv_pos_as_xyz 
  x,y,z 
_cell_length_a                    38.7167383 
_cell_length_b                    38.609369759984325 
_cell_length_c                    38.61576975217803 
_cell_angle_alpha                 89.89525381611288 
_cell_angle_beta                  90.26820334209395 
_cell_angle_gamma                 90.04579020077139 
loop_ 
_atom_site_label 
_atom_site_type_symbol 
_atom_site_fract_x 
_atom_site_fract_y 
_atom_site_fract_z 
_atom_site_charge 
O1          O  0.38383463  0.43494646  0.04525078    -0.82300
C2          C  0.24441509  0.41942811  0.02819436     0.97100
O3          O  0.27155846  0.42476765  0.01138398    -0.71400
O4          O  0.33364961  0.43730092  0.49484936    -0.75000
Al5        Al  0.31305676  0.40676280  0.02798880     1.49000
C6          C  0.34221409  0.46914236  0.49682692     0.92300
O7          O  0.32409903  0.00229256  0.09078843    -0.81200
O8          O  0.31107751  0.45373566  0.13209991    -0.74800
Al9        Al  0.34912480  0.46614292  0.06575442     1.90100
O10         O  0.26875126  0.48247217  0.08100183    -0.73900
O11         O  0.29136177  0.39219074  0.10755162    -0.73700
O12         O  0.24473211  0.42147395  0.06115895    -0.79400
O13         O  0.28922279  0.36992880  0.05520876    -0.77600
O14         O  0.31450043  0.43680158  0.06215610    -1.13700
O15         O  0.35462432  0.38627391  0.04157116    -0.72900
C16         C  0.38251955  0.40262224  0.03877221     0.97800
C17         C  0.29134594  0.00595425  0.09331483     0.94200
Al18       Al  0.28131109  0.43738328  0.09325544     1.55600
O19         O  0.33950667  0.48648399  0.02311682    -0.77500
C20         C  0.28479734  0.36707657  0.08788698     0.98400
C21         C  0.34396186  0.45502210  0.13418931     0.93300
O22         O  0.36191894  0.44768434  0.10834841    -0.82800
O23         O  0.37029242  0.06661531  0.29922724    -0.82300
C24         C  0.01163916  0.07896342  0.28324021     0.97100
O25         O  0.48419950  0.07077571  0.26556831    -0.71400
O26         O  0.41963755  0.05925945  0.24739841    -0.75000
Al27       Al  0.44270771  0.09052490  0.28012859     1.49000
C28         C  0.41069434  0.02764199  0.25016884     0.92300
O29         O  0.43460499  0.49435728  0.33818845    -0.81200
O30         O  0.44379578  0.04633507  0.38601980    -0.74800
Al31       Al  0.40391922  0.03466549  0.32066469     1.90100
O32         O  0.48421680  0.01581936  0.33555012    -0.73900
O33         O  0.46359405  0.10674402  0.35979935    -0.72900
O34         O  0.00984057  0.07853636  0.31619811    -0.79400
O35         O  0.46592131  0.12753490  0.30657256    -0.77600
O36         O  0.43981285  0.06214587  0.31563531    -1.13700
O37         O  0.40188150  0.11299501  0.29107814    -0.72900
C38         C  0.37304864  0.09827686  0.29028775     0.97800
C39         C  0.46714840  0.49240280  0.34333200     0.94200
Al40       Al  0.47317498  0.06139934  0.34692850     1.55600
O41         O  0.41154255  0.01238817  0.27887482    -0.77500
C42         C  0.46906719  0.13143318  0.33925231     0.98400
C43         C  0.41104934  0.04696600  0.38912722     0.93300
O44         O  0.39286776  0.05494012  0.36330403    -0.82800
O45         O  0.18175755  0.25260390  0.16213865    -0.82300
C46         C  0.22141067  0.11676819  0.16507017     0.97100
O47         O  0.21437545  0.14123470  0.14460959    -0.71400
O48         O  0.19343183  0.20211441  0.11846584    -0.75000
Al49       Al  0.22339391  0.18710849  0.15751543     1.49000
C50         C  0.16059886  0.20302973  0.11561002     0.92300
O51         O  0.12101000  0.18257702  0.20566224    -0.81200
O52         O  0.16943778  0.18906792  0.25723083    -0.74800
Al53       Al  0.15468543  0.21452144  0.18414105     1.90100
O54         O  0.15192946  0.13542445  0.21278885    -0.73900
O55         O  0.23447643  0.17759726  0.23929905    -0.73700
O56         O  0.21726961  0.12050726  0.19773736    -0.79400
O57         O  0.26068940  0.17250049  0.18954716    -0.77600
O58         O  0.19023640  0.18639776  0.18874046    -1.13700
O59         O  0.23468741  0.23288140  0.16845760    -0.72900
C60         C  0.21444530  0.25709320  0.16033947     0.97800
C61         C  0.12340606  0.15077841  0.21441015     0.94200
Al62       Al  0.19308015  0.15775755  0.22422394     1.55600
O63         O  0.14249241  0.19503598  0.14134125    -0.77500
C64         C  0.26136183  0.17116282  0.22251947     0.98400
C65         C  0.16094240  0.22094774  0.25470523     0.93300
O66         O  0.16353521  0.23637692  0.22618199    -0.82800
O67         O  0.49404295  0.32692765  0.43722412    -0.82300
C68         C  0.13015466  0.34735343  0.46417039     0.97100
O69         O  0.10133385  0.36207738  0.46362141    -0.71400
O70         O  0.03727048  0.37696109  0.44801508    -0.75000
Al71       Al  0.06049989  0.33941679  0.47405293     1.49000
C72         C  0.03470287  0.38153159  0.41534846     0.92300
O73         O  0.06077710  0.29717005  0.36726441    -0.81200
O74         O  0.07221438  0.24628509  0.41070380    -0.74800
Al75       Al  0.03092709  0.31183972  0.40635980     1.90100
O76         O  0.11150298  0.30425923  0.39108698    -0.73900
O77         O  0.09116861  0.26117521  0.47483183    -0.73700
O78         O  0.13297018  0.31570255  0.45522502    -0.79400
O79         O  0.08461848  0.31197232  0.00709750    -0.77600
O80         O  0.06378127  0.31165733  0.43812161    -1.13700
O81         O  0.01883225  0.31924305  0.48799952    -0.72900
C82         C  0.49265967  0.32749407  0.47021490     0.97800
C83         C  0.09360557  0.29641681  0.36512504     0.94200
Al84       Al  0.09947178  0.28388589  0.43332233     1.55600
O85         O  0.04099858  0.35737176  0.39451215    -0.77500
C86         C  0.09316744  0.28009205  0.00567179     0.98400
C87         C  0.03946545  0.24226903  0.40832574     0.93300
O88         O  0.01934696  0.26635466  0.41675937    -0.82800
C89         C  0.11000177  0.26199395  0.03489607    -0.06000
C90         C  0.14497197  0.25277446  0.03159892    -0.33400
C91         C  0.16158770  0.23218893  0.05661932     0.35900
C92         C  0.14303129  0.21977237  0.08539814    -0.06300
C93         C  0.10759045  0.22836489  0.08796356    -0.33300
C94         C  0.09117779  0.24922142  0.06303530     0.35800
H95         H  0.15950129  0.26157096  0.00931714     0.16100
O96         O  0.19581459  0.22413141  0.05242761    -0.60800
H97         H  0.09254016  0.21960524  0.10987761     0.16100
O98         O  0.05674667  0.25676981  0.06631407    -0.60900
H99         H  0.04449505  0.23813345  0.05354910     0.43100
H100        H  0.20871221  0.24490299  0.06022046     0.43100
C101        C  0.14453862  0.24034671  0.28348961    -0.06000
C102        C  0.12049259  0.26675990  0.27534327    -0.33400
C103        C  0.10360257  0.28551866  0.30134669     0.35900
C104        C  0.11136469  0.27885758  0.33617028    -0.06300
C105        C  0.13557762  0.25272797  0.34433209    -0.33300
C106        C  0.15134681  0.23296088  0.31843170     0.35800
H107        H  0.11417740  0.27248218  0.24857601     0.16100
O108        O  0.07972037  0.31022066  0.29244503    -0.60800
H109        H  0.14137939  0.24663768  0.37112605     0.16100
O110        O  0.17374919  0.20699506  0.32760080    -0.60900
H111        H  0.15894529  0.18643130  0.33171340     0.43100
H112        H  0.09303492  0.33207177  0.29035309     0.43100
C113        C  0.29065602  0.15543129  0.24152943    -0.06000
C114        C  0.28334724  0.13181840  0.26850166    -0.33400
C115        C  0.30963679  0.11269443  0.28462803     0.35900
C116        C  0.34404982  0.11802169  0.27489498    -0.06300
C117        C  0.35140966  0.14226725  0.24847938    -0.33300
C118        C  0.32502763  0.16050340  0.23155972     0.35800
H119        H  0.25689014  0.12704049  0.27619228     0.16100
O120        O  0.30145658  0.08934512  0.31011063    -0.60800
H121        H  0.37777688  0.14637337  0.24011172     0.16100
O122        O  0.33307950  0.18263900  0.20497873    -0.60900
H123        H  0.33400238  0.20597281  0.21564059     0.43100
H124        H  0.29600376  0.06750706  0.29773375     0.43100
C125        C  0.04119551  0.09507363  0.26491946    -0.06000
C126        C  0.03428600  0.11548735  0.23527859    -0.33400
C127        C  0.06045154  0.13436972  0.21882767     0.35900
C128        C  0.09451273  0.13192409  0.23092356    -0.06300
C129        C  0.10157135  0.11127391  0.26032977    -0.33300
C130        C  0.07517046  0.09344829  0.27762202     0.35800
H131        H  0.00814685  0.11784481  0.22542687     0.16100
O132        O  0.05258621  0.15440921  0.19052627    -0.60800
H133        H  0.12766494  0.10962869  0.27048148     0.16100
O134        O  0.08283101  0.07487741  0.30696975    -0.60900
H135        H  0.08659299  0.05079964  0.29893818     0.43100
H136        H  0.04580439  0.17721384  0.20010811     0.43100
C137        C  0.02329469  0.21213710  0.39126436    -0.06000
C138        C  0.98965987  0.20292788  0.40129241    -0.33400
C139        C  0.97024128  0.17930212  0.38205280     0.35900
C140        C  0.48429699  0.16263673  0.35427358    -0.06300
C141        C  0.51716464  0.17283415  0.34324674    -0.33300
C142        C  0.53643019  0.19686725  0.36239550     0.35800
H143        H  0.97812545  0.21454097  0.42400171     0.16100
O144        O  0.93753016  0.17081768  0.39268626    -0.60800
H145        H  0.52850155  0.16114922  0.32045830     0.16100
O146        O  0.56822787  0.20686531  0.35059116    -0.60900
H147        H  0.56354484  0.22034061  0.32919558     0.43100
H148        H  0.94075303  0.15356833  0.41148713     0.43100
C149        C  0.48312112  0.46204513  0.35998124    -0.06000
C150        C  0.01630302  0.45197610  0.35121783    -0.33400
C151        C  0.03462093  0.42762189  0.37065029     0.35900
C152        C  0.01969788  0.41293764  0.40037702    -0.06300
C153        C  0.48915215  0.42457319  0.41043066    -0.33300
C154        C  0.47000692  0.44885263  0.39133958     0.35800
H155        H  0.02850693  0.46367709  0.32885889     0.16100
O156        O  0.06678893  0.41752087  0.35986742    -0.60800
H157        H  0.47834913  0.41391791  0.43401345     0.16100
O158        O  0.43935779  0.46073328  0.40438698    -0.60900
H159        H  0.42142766  0.44514238  0.39466585     0.43100
H160        H  0.08320770  0.43223067  0.37300400     0.43100
C161        C  0.39517372  0.00866160  0.22116553    -0.06000
C162        C  0.37597832  0.47911853  0.22393684    -0.33400
C163        C  0.35657895  0.46283819  0.19789440     0.35900
C164        C  0.36218028  0.47176914  0.16327048    -0.06300
C165        C  0.39702517  0.98410023  0.16371716    -0.33300
C166        C  0.41231445  0.00421231  0.18970672     0.35800
H167        H  0.37121446  0.47189185  0.25061451     0.16100
O168        O  0.33316920  0.43761080  0.20645046    -0.60800
H169        H  0.41065981  0.98130358  0.13945081     0.16100
O170        O  0.44436140  0.01841877  0.18453174    -0.60900
H171        H  0.43989680  0.04192250  0.17514255     0.43100
H172        H  0.31116342  0.45008594  0.21038333     0.43100
C173        C  0.39315193  0.03209009  0.41981203    -0.06000
C174        C  0.35667302  0.03064544  0.41971084    -0.33400
C175        C  0.34595589  0.48387338  0.43298541     0.35900
C176        C  0.35734264  0.48831711  0.46723033    -0.06300
C177        C  0.39317876  0.99251728  0.46896917    -0.33300
C178        C  0.41123903  0.01378831  0.44579601     0.35800
H179        H  0.34189614  0.04480304  0.40046359     0.16100
O180        O  0.31963347  0.46129352  0.42541674    -0.60800
H181        H  0.40758189  0.99812367  0.99898267     0.16100
O182        O  0.44654670  0.01554212  0.44820109    -0.60900
H183        H  0.45130877  0.03522507  0.46398730     0.43100
H184        H  0.33118085  0.43924847  0.41926460     0.43100
C185        C  0.23014495  0.28809265  0.14403127    -0.06000
C186        C  0.21641931  0.30123601  0.11290729    -0.33400
C187        C  0.23522783  0.32507539  0.09276624     0.35900
C188        C  0.26800460  0.33662189  0.10399069    -0.06300
C189        C  0.28110252  0.32424943  0.13560457    -0.33300
C190        C  0.26283697  0.29985691  0.15519682     0.35800
H191        H  0.19160495  0.29210724  0.10356173     0.16100
O192        O  0.22050333  0.33842848  0.06326275    -0.60800
H193        H  0.30558224  0.33386416  0.14536617     0.16100
O194        O  0.27688242  0.28807072  0.18571427    -0.60900
H195        H  0.29447703  0.27077138  0.17890506     0.43100
H196        H  0.22447231  0.32078231  0.04511817     0.43100
C197        C  0.27523895  0.03676762  0.10968088    -0.06000
C198        C  0.29054474  0.05212283  0.13897875    -0.33400
C199        C  0.27236549  0.07664245  0.15882925     0.35900
C200        C  0.23824130  0.08595609  0.14972394    -0.06300
C201        C  0.22333606  0.07103707  0.12014440    -0.33300
C202        C  0.24130817  0.04662998  0.10041922     0.35800
H203        H  0.31626544  0.04442793  0.14707397     0.16100
O204        O  0.28855427  0.09211560  0.18640280    -0.60800
H205        H  0.19769382  0.07885035  0.11192297     0.16100
O206        O  0.22523423  0.03227433  0.07214896    -0.60900
H207        H  0.23331098  0.04607916  0.05206705     0.43100
H208        H  0.30263139  0.11097326  0.17616173     0.43100
C209        C  0.41121423  0.38449225  0.02187660    -0.06000
C210        C  0.40347491  0.36387098  0.48999548    -0.33400
C211        C  0.42977194  0.34561723  0.47306300     0.35900
C212        C  0.46228351  0.34179259  0.48900105    -0.06300
C213        C  0.46695472  0.35621997  0.02259679    -0.33300
C214        C  0.44177580  0.37604041  0.03937170     0.35800
H215        H  0.37862184  0.36658043  0.47723665     0.16100
O216        O  0.42331507  0.33151802  0.44110498    -0.60800
H217        H  0.49056185  0.35040384  0.03659641     0.16100
O218        O  0.44684323  0.38606315  0.07306595    -0.60900
H219        H  0.45654851  0.40980187  0.07163844     0.43100
H220        H  0.42658418  0.35079812  0.42441922     0.43100
C221        C  0.15909630  0.36707626  0.47940333    -0.06000
C222        C  0.15353206  0.39359015  0.00259981    -0.33400
C223        C  0.18055167  0.41108219  0.01921010     0.35900
C224        C  0.21468058  0.40477499  0.00922322    -0.06300
C225        C  0.21915727  0.38411815  0.48255320    -0.33300
C226        C  0.19281807  0.36488907  0.46671484     0.35800
H227        H  0.12734804  0.39841125  0.01111588     0.16100
O228        O  0.17335682  0.43378361  0.04546776    -0.60800
H229        H  0.24516297  0.38159258  0.47264030     0.16100
O230        O  0.20016174  0.34469605  0.43852529    -0.60900
H231        H  0.20741755  0.32202854  0.44825369     0.43100
H232        H  0.17208195  0.45686290  0.03423119     0.43100
O233        O  0.38308555  0.43084214  0.54687302    -0.82300
C234        C  0.24235723  0.41987223  0.53074131     0.97100
O235        O  0.26911009  0.42632057  0.51374423    -0.71400
O236        O  0.33638650  0.43749490  0.99420765    -0.75000
Al237      Al  0.31060078  0.40640440  0.52844752     1.49000
C238        C  0.34350255  0.46976411  0.99556311     0.92300
O239        O  0.31700151  0.00446524  0.58743433    -0.81200
O240        O  0.31059529  0.45168733  0.63379052    -0.74800
Al241      Al  0.34944128  0.46341829  0.56777386     1.90100
O242        O  0.26917626  0.48158558  0.58365228    -0.73900
O243        O  0.29056914  0.39052636  0.60837425    -0.73700
O244        O  0.24341901  0.42087314  0.56368592    -0.79400
O245        O  0.28704302  0.36936526  0.55554826    -0.77600
O246        O  0.31385814  0.43525975  0.56366203    -1.13700
O247        O  0.35171153  0.38395643  0.53948394    -0.72900
C248        C  0.38042818  0.39896518  0.53842426     0.97800
C249        C  0.28421376  0.00672772  0.59040868     0.94200
Al250      Al  0.28085548  0.43603379  0.59510348     1.55600
O251        O  0.34083577  0.48474817  0.52529287    -0.77500
C252        C  0.28368006  0.36575005  0.58831207     0.98400
C253        C  0.34335316  0.45320713  0.63647185     0.93300
O254        O  0.36164246  0.44482396  0.61103201    -0.82800
O255        O  0.36772638  0.06715280  0.79847632    -0.82300
C256        C  0.00800924  0.07973248  0.78078913     0.97100
O257        O  0.47954016  0.07881903  0.76253022    -0.71400
O258        O  0.41414973  0.06655785  0.74596354    -0.75000
Al259      Al  0.43826352  0.09559777  0.78074807     1.49000
C260        C  0.40683127  0.03431218  0.74604763     0.92300
O261        O  0.43024649  0.49744398  0.83909683    -0.81200
O262        O  0.44339803  0.04342373  0.88255021    -0.74800
Al263      Al  0.40285313  0.03467060  0.81678899     1.90100
O264        O  0.48352153  0.01718913  0.82899314    -0.73900
O265        O  0.46232896  0.10606798  0.86052116    -0.72900
O266        O  0.00841764  0.07634487  0.81358023    -0.79400
O267        O  0.46239645  0.13082464  0.80912281    -0.77600
O268        O  0.43763794  0.06394709  0.81360138    -1.13700
O269        O  0.39734127  0.11545091  0.79610565    -0.72900
C270        C  0.36913312  0.09973643  0.79313091     0.97800
C271        C  0.46288372  0.49242437  0.84043131     0.94200
Al272      Al  0.47179569  0.06167390  0.84384372     1.55600
O273        O  0.41082463  0.01643837  0.77298843    -0.77500
C274        C  0.46758934  0.13219853  0.84176557     0.98400
C275        C  0.41065186  0.04199358  0.88589106     0.93300
O276        O  0.39164014  0.05070339  0.86092763    -0.82800
O277        O  0.17975385  0.25206682  0.66124629    -0.82300
C278        C  0.21608160  0.11588262  0.66503304     0.97100
O279        O  0.21086584  0.14081812  0.64467656    -0.71400
O280        O  0.19150871  0.20145935  0.61825584    -0.75000
Al281      Al  0.22066221  0.18632887  0.65782122     1.49000
C282        C  0.15869500  0.20205017  0.61523023     0.92300
O283        O  0.11739644  0.18364182  0.70443800    -0.81200
O284        O  0.16509472  0.18910779  0.75612562    -0.74800
Al285      Al  0.15191874  0.21471288  0.68323816     1.90100
O286        O  0.14746847  0.13606033  0.71031352    -0.73900
O287        O  0.22982088  0.17592357  0.73994835    -0.73700
O288        O  0.21210269  0.11970860  0.69764841    -0.79400
O289        O  0.25707379  0.17117792  0.69061599    -0.77600
O290        O  0.18707673  0.18625862  0.68848941    -1.13700
O291        O  0.23244486  0.23197497  0.66889360    -0.72900
C292        C  0.21250262  0.25615572  0.65997224     0.97800
C293        C  0.11909504  0.15153696  0.71201310     0.94200
Al294      Al  0.18847907  0.15732005  0.72359015     1.55600
O295        O  0.14037964  0.19452023  0.64087612    -0.77500
C296        C  0.25702296  0.16980152  0.72360354     0.98400
C297        C  0.15761622  0.22125070  0.75364729     0.93300
O298        O  0.16030368  0.23679247  0.72518064    -0.82800
O299        O  0.49365044  0.32802979  0.93661713    -0.82300
C300        C  0.13063609  0.34916414  0.96225675     0.97100
O301        O  0.10193625  0.36420339  0.96085690    -0.71400
O302        O  0.03695844  0.37858176  0.94512136    -0.75000
Al303      Al  0.06092682  0.34220089  0.97291169     1.49000
C304        C  0.03319545  0.38153468  0.91231628     0.92300
O305        O  0.06042054  0.29541802  0.86851196    -0.81200
O306        O  0.07259422  0.24603024  0.91416591    -0.74800
Al307      Al  0.03067165  0.31110702  0.90690314     1.90100
O308        O  0.11142261  0.30291071  0.89185065    -0.73900
O309        O  0.09110683  0.26372364  0.97769713    -0.73700
O310        O  0.13300821  0.31704068  0.95520546    -0.79400
O311        O  0.08363149  0.30777321  0.50657077    -0.77600
O312        O  0.06380597  0.31259706  0.93843040    -1.13700
O313        O  0.01934683  0.32281889  0.98826093    -0.72900
C314        C  0.49228195  0.32945107  0.96955533     0.97800
C315        C  0.09321480  0.29507950  0.86606939     0.94200
Al316      Al  0.09947346  0.28452016  0.93496744     1.55600
O317        O  0.03983951  0.35647046  0.89267464    -0.77500
C318        C  0.09261337  0.27621025  0.50355553     0.98400
C319        C  0.03997762  0.24133661  0.91215011     0.93300
O320        O  0.01946388  0.26559385  0.91917303    -0.82800
C321        C  0.10878303  0.25711474  0.53222484    -0.06000
C322        C  0.14147787  0.24217635  0.52690741    -0.33400
C323        C  0.15797452  0.22326199  0.55317574     0.35900
C324        C  0.14115621  0.21795339  0.58491159    -0.06300
C325        C  0.10788338  0.23228939  0.58963380    -0.33300
C326        C  0.09193026  0.25200648  0.56372997     0.35800
H327        H  0.15458339  0.24581855  0.50242072     0.16100
O328        O  0.19027827  0.20995560  0.54745543    -0.60800
H329        H  0.09447915  0.22926455  0.61401319     0.16100
O330        O  0.05992750  0.26603980  0.56942999    -0.60900
H331        H  0.04330291  0.24911304  0.55957789     0.43100
H332        H  0.20641554  0.22947828  0.55160976     0.43100
C333        C  0.14220791  0.24075909  0.78260949    -0.06000
C334        C  0.11476307  0.26382545  0.77553618    -0.33400
C335        C  0.09880605  0.28251780  0.80212720     0.35900
C336        C  0.11080240  0.27897532  0.83626803    -0.06300
C337        C  0.13881039  0.25657100  0.84311305    -0.33300
C338        C  0.15401889  0.23710338  0.81673891     0.35800
H339        H  0.10513252  0.26678440  0.74930048     0.16100
O340        O  0.07146549  0.30381933  0.79451809    -0.60800
H341        H  0.14817736  0.25306213  0.86936722     0.16100
O342        O  0.18094674  0.21532932  0.82445547    -0.60900
H343        H  0.16998758  0.19329319  0.83174373     0.43100
H344        H  0.08161729  0.32729129  0.79211481     0.43100
C345        C  0.28597760  0.15452805  0.74324465    -0.06000
C346        C  0.27868131  0.12754101  0.76676790    -0.33400
C347        C  0.30523133  0.10963139  0.78381624     0.35900
C348        C  0.33967675  0.11944381  0.77845753    -0.06300
C349        C  0.34676586  0.14749092  0.75596087    -0.33300
C350        C  0.32025528  0.16467776  0.73814684     0.35800
H351        H  0.25224274  0.11935297  0.77093016     0.16100
O352        O  0.29721541  0.08290636  0.80580373    -0.60800
H353        H  0.37316441  0.15537550  0.75108786     0.16100
O354        O  0.32814303  0.19103731  0.71567907    -0.60900
H355        H  0.32525199  0.21261071  0.72927239     0.43100
H356        H  0.29423599  0.06237477  0.79067216     0.43100
C357        C  0.03663981  0.09645307  0.76228294    -0.06000
C358        C  0.02949740  0.12691478  0.74346619    -0.33400
C359        C  0.05570846  0.14503648  0.72638925     0.35900
C360        C  0.08960901  0.13211675  0.72696608    -0.06300
C361        C  0.09641489  0.10101152  0.74524917    -0.33300
C362        C  0.07030594  0.08347980  0.76308995     0.35800
H363        H  0.00350423  0.13729328  0.74280185     0.16100
O364        O  0.04782391  0.17516046  0.70922897    -0.60800
H365        H  0.12236243  0.09061572  0.74666006     0.16100
O366        O  0.07797736  0.05386523  0.78120455    -0.60900
H367        H  0.07268699  0.03459007  0.76508020     0.43100
H368        H  0.04854854  0.19348611  0.72718989     0.43100
C369        C  0.02472657  0.20983231  0.89674858    -0.06000
C370        C  0.99239609  0.19847775  0.90863044    -0.33400
C371        C  0.97347201  0.17360514  0.89029454     0.35900
C372        C  0.48455569  0.16213408  0.85821903    -0.06300
C373        C  0.51565245  0.17462867  0.84444299    -0.33300
C374        C  0.53566734  0.19886748  0.86271728     0.35800
H375        H  0.98150360  0.20939552  0.93199599     0.16100
O376        O  0.94229167  0.16259606  0.90300244    -0.60800
H377        H  0.52490568  0.16491375  0.81985308     0.16100
O378        O  0.56548362  0.21123059  0.84818727    -0.60900
H379        H  0.55779544  0.22780978  0.83011112     0.43100
H380        H  0.94804841  0.14451418  0.92037273     0.43100
C381        C  0.47840557  0.46116638  0.85653538    -0.06000
C382        C  0.01120897  0.45047292  0.84635579    -0.33400
C383        C  0.03012713  0.42597620  0.86528329     0.35900
C384        C  0.01664083  0.41198820  0.89608027    -0.06300
C385        C  0.48433243  0.42310840  0.90679119    -0.33300
C386        C  0.46455244  0.44644550  0.88694103     0.35800
H387        H  0.02273250  0.46191441  0.82350496     0.16100
O388        O  0.06177311  0.41560531  0.85329616    -0.60800
H389        H  0.47324327  0.41182074  0.92991688     0.16100
O390        O  0.43245687  0.45586692  0.89840828    -0.60900
H391        H  0.41622474  0.43941816  0.88718972     0.43100
H392        H  0.07877510  0.43046097  0.86548510     0.43100
C393        C  0.38962405  0.01721346  0.71652723    -0.06000
C394        C  0.36166967  0.49212933  0.72518908    -0.33400
C395        C  0.34571041  0.47254949  0.69905425     0.35900
C396        C  0.36025734  0.47150270  0.66583137    -0.06300
C397        C  0.38984788  0.99416442  0.65827883    -0.33300
C398        C  0.40506077  0.01487400  0.68394295     0.35800
H399        H  0.35057667  0.49189348  0.75090915     0.16100
O400        O  0.31642168  0.45402039  0.70646948    -0.60800
H401        H  0.40246140  0.99266228  0.63334879     0.16100
O402        O  0.43574241  0.03134738  0.67742146    -0.60900
H403        H  0.42920406  0.05486097  0.66936833     0.43100
H404        H  0.29712053  0.47064629  0.70342616     0.43100
C405        C  0.39390551  0.02473763  0.91590970    -0.06000
C406        C  0.36094041  0.00962118  0.91102086    -0.33400
C407        C  0.34460318  0.49362096  0.93518223     0.35900
C408        C  0.36093117  0.48790179  0.96700898    -0.06300
C409        C  0.39444183  0.00124968  0.97432765    -0.33300
C410        C  0.41086162  0.01980435  0.94781609     0.35800
H411        H  0.34756998  0.01211795  0.88643969     0.16100
O412        O  0.31246358  0.48012600  0.92867052    -0.60800
H413        H  0.40748067  0.97844028  0.48865538     0.16100
O414        O  0.44348977  0.03256142  0.95328794    -0.60900
H415        H  0.44006987  0.05635901  0.96224690     0.43100
H416        H  0.31677991  0.45731045  0.91777932     0.43100
C417        C  0.22854024  0.28641708  0.64305052    -0.06000
C418        C  0.21865099  0.29524810  0.60909680    -0.33400
C419        C  0.23805351  0.31908579  0.58961121     0.35900
C420        C  0.26758352  0.33480180  0.60424173    -0.06300
C421        C  0.27742396  0.32567237  0.63813994    -0.33300
C422        C  0.25859909  0.30133586  0.65719283     0.35800
H423        H  0.19644877  0.28281841  0.59725786     0.16100
O424        O  0.22747170  0.32742218  0.55670004    -0.60800
H425        H  0.29964895  0.33789843  0.65015257     0.16100
O426        O  0.26940631  0.29271702  0.68998821    -0.60900
H427        H  0.28789407  0.27529522  0.68673379     0.43100
H428        H  0.20861232  0.34448632  0.55975242     0.43100
C429        C  0.26759425  0.03613540  0.60838735    -0.06000
C430        C  0.28149085  0.04798647  0.63992875    -0.33400
C431        C  0.26328958  0.07167003  0.66058428     0.35900
C432        C  0.23088803  0.08424272  0.64958920    -0.06300
C433        C  0.21686961  0.07202122  0.61830512    -0.33300
C434        C  0.23462215  0.04783155  0.59810609     0.35800
H435        H  0.30615010  0.03820448  0.64901757     0.16100
O436        O  0.27789512  0.08322420  0.69085965    -0.60800
H437        H  0.19231891  0.08196705  0.60907094     0.16100
O438        O  0.21950472  0.03576282  0.56827612    -0.60900
H439        H  0.22666360  0.05224049  0.54993093     0.43100
H440        H  0.29332170  0.10252688  0.68397939     0.43100
C441        C  0.40918103  0.37952666  0.52246927    -0.06000
C442        C  0.40617795  0.37290655  0.98773461    -0.33400
C443        C  0.43160590  0.35380380  0.97057870     0.35900
C444        C  0.46246540  0.34515078  0.98792284    -0.06300
C445        C  0.46725166  0.35597818  0.52243363    -0.33300
C446        C  0.44118309  0.37503254  0.53889062     0.35800
H447        H  0.38235865  0.37896184  0.97416471     0.16100
O448        O  0.42581069  0.34344866  0.93708468    -0.60800
H449        H  0.49196605  0.35349668  0.53545995     0.16100
O450        O  0.44692735  0.38825546  0.57133739    -0.60900
H451        H  0.45554075  0.41212494  0.56743933     0.43100
H452        H  0.42992743  0.36430093  0.92266533     0.43100
C453        C  0.16006038  0.36898078  0.97646081    -0.06000
C454        C  0.15228825  0.38869655  0.50800028    -0.33400
C455        C  0.17876510  0.40715499  0.52445348     0.35900
C456        C  0.21260948  0.40481651  0.51193097    -0.06300
C457        C  0.22115331  0.38117968  0.98214207    -0.33300
C458        C  0.19420318  0.36287751  0.96625077     0.35800
H459        H  0.12635990  0.39054246  0.51829328     0.16100
O460        O  0.17137862  0.42674453  0.55306491    -0.60800
H461        H  0.24741205  0.37569825  0.97426381     0.16100
O462        O  0.20145859  0.33950494  0.94059272    -0.60900
H463        H  0.20741917  0.31769695  0.95285806     0.43100
H464        H  0.16882635  0.45076936  0.54427786     0.43100
O465        O  0.38603984  0.93310472  0.04820695    -0.82300
C466        C  0.24570028  0.91820579  0.03291310     0.97100
O467        O  0.27251759  0.92437206  0.01586120    -0.71400
O468        O  0.33368487  0.93886050  0.49440845    -0.75000
Al469      Al  0.31446482  0.90587702  0.03105149     1.49000
C470        C  0.33934427  0.97138961  0.49561713     0.92300
O471        O  0.32101043  0.50381554  0.08703667    -0.81200
O472        O  0.31390681  0.95175257  0.13543703    -0.74800
Al473      Al  0.35186872  0.96452490  0.06918220     1.90100
O474        O  0.27155423  0.98115946  0.08576592    -0.73900
O475        O  0.29458615  0.89048970  0.11098905    -0.73700
O476        O  0.24674800  0.91977267  0.06587325    -0.79400
O477        O  0.29166012  0.86876206  0.05845168    -0.77600
O478        O  0.31690508  0.93544611  0.06563214    -1.13700
O479        O  0.35626821  0.88493108  0.04282224    -0.72900
C480        C  0.38430879  0.90108502  0.04041679     0.97800
C481        C  0.28820587  0.50733869  0.08878783     0.94200
Al482      Al  0.28407500  0.93575428  0.09721992     1.55600
O483        O  0.34247914  0.98521771  0.02645097    -0.77500
C484        C  0.28825641  0.86541920  0.09119550     0.98400
C485        C  0.34668138  0.95314897  0.13792237     0.93300
O486        O  0.36484181  0.94605503  0.11205974    -0.82800
O487        O  0.37231366  0.55992397  0.29094205    -0.82300
C488        C  0.01281025  0.57868371  0.28386377     0.97100
O489        O  0.48816998  0.57116840  0.26545337    -0.71400
O490        O  0.42448469  0.55627336  0.24253958    -0.75000
Al491      Al  0.44421330  0.58867823  0.27650333     1.49000
C492        C  0.41708848  0.52422430  0.24475811     0.92300
O493        O  0.43100263  0.99662834  0.34241471    -0.81200
O494        O  0.43934750  0.54655658  0.38302615    -0.74800
Al495      Al  0.40658828  0.52995397  0.31432525     1.90100
O496        O  0.48643116  0.51810725  0.33788533    -0.73900
O497        O  0.45682390  0.60826908  0.35673591    -0.72900
O498        O  0.00944879  0.57873436  0.31672040    -0.79400
O499        O  0.46364332  0.62760108  0.30357822    -0.77600
O500        O  0.44035301  0.56050812  0.31231286    -1.13700
O501        O  0.40141086  0.60846656  0.28439693    -0.72900
C502        C  0.37348676  0.59199633  0.28298118     0.97800
C503        C  0.46368168  0.99182158  0.34349218     0.94200
Al504      Al  0.47077635  0.56307825  0.34630150     1.55600
O505        O  0.41992328  0.50881139  0.27320958    -0.77500
C506        C  0.46399102  0.63263965  0.33625031     0.98400
C507        C  0.40667006  0.54272884  0.38322920     0.93300
O508        O  0.38973590  0.54779958  0.35592085    -0.82800
O509        O  0.18416422  0.75379856  0.16540231    -0.82300
C510        C  0.21616665  0.61600244  0.16114539     0.97100
O511        O  0.21044438  0.64178631  0.14198959    -0.71400
O512        O  0.19244006  0.70458417  0.11929102    -0.75000
Al513      Al  0.22183392  0.68644202  0.15739199     1.49000
C514        C  0.15966921  0.70751484  0.11701565     0.92300
O515        O  0.11967812  0.68645660  0.20672122    -0.81200
O516        O  0.16747942  0.68576570  0.25689467    -0.74800
Al517      Al  0.15531136  0.71680948  0.18612820     1.90100
O518        O  0.14664477  0.63648791  0.20788336    -0.73900
O519        O  0.23191648  0.67036438  0.23902421    -0.73700
O520        O  0.21152119  0.61813125  0.19381878    -0.79400
O521        O  0.25794507  0.66867822  0.18875750    -0.77600
O522        O  0.18883215  0.68601785  0.18859697    -1.13700
O523        O  0.23584530  0.73097441  0.17062367    -0.72900
C524        C  0.21694810  0.75642974  0.16334404     0.97800
C525        C  0.11956213  0.65385349  0.21191983     0.94200
Al526      Al  0.18929583  0.65490676  0.22203166     1.55600
O527        O  0.14117847  0.70062111  0.14279584    -0.77500
C528        C  0.25876935  0.66528952  0.22159669     0.98400
C529        C  0.16189093  0.71840128  0.25622812     0.93300
O530        O  0.16677439  0.73541841  0.22896328    -0.82800
O531        O  0.49197150  0.82973722  0.43469914    -0.82300
C532        C  0.12935230  0.84279263  0.46524319     0.97100
O533        O  0.10160053  0.85943055  0.46279684    -0.71400
O534        O  0.03830001  0.87813852  0.44484419    -0.75000
Al535      Al  0.05890078  0.83968516  0.47244553     1.49000
C536        C  0.03607299  0.88222257  0.41202487     0.92300
O537        O  0.06102456  0.79586769  0.36675375    -0.81200
O538        O  0.06712836  0.74463457  0.41124496    -0.74800
Al539      Al  0.03013258  0.81260223  0.40410816     1.90100
O540        O  0.11098946  0.79942331  0.39304279    -0.73900
O541        O  0.08326130  0.75948921  0.47612350    -0.73700
O542        O  0.13026378  0.81064889  0.45768152    -0.79400
O543        O  0.08611958  0.81224371  0.00510007    -0.77600
O544        O  0.06159555  0.81093568  0.43725235    -1.13700
O545        O  0.01552889  0.82238821  0.48525862    -0.72900
C546        C  0.48952414  0.82978557  0.46769494     0.97800
C547        C  0.09385613  0.79309345  0.36617550     0.94200
Al548      Al  0.09550153  0.78071892  0.43471966     1.55600
O549        O  0.04324553  0.85760017  0.39202447    -0.77500
C550        C  0.09429613  0.78033645  0.00335535     0.98400
C551        C  0.03439056  0.74226533  0.40728850     0.93300
O552        O  0.01515203  0.76760369  0.41408127    -0.82800
C553        C  0.11045577  0.76195769  0.03278086    -0.06000
C554        C  0.13969088  0.74117509  0.02649800    -0.33400
C555        C  0.15628481  0.72329004  0.05345473     0.35900
C556        C  0.14276668  0.72471628  0.08707012    -0.06300
C557        C  0.11349095  0.74562411  0.09324973    -0.33300
C558        C  0.09769654  0.76448941  0.06654274     0.35800
H559        H  0.15016285  0.73937151  0.00058383     0.16100
O560        O  0.18516005  0.70402061  0.04651480    -0.60800
H561        H  0.10320517  0.74807347  0.11917409     0.16100
O562        O  0.06978216  0.78507760  0.07370057    -0.60900
H563        H  0.04926147  0.77060339  0.06842300     0.43100
H564        H  0.20473984  0.72050952  0.04833638     0.43100
C565        C  0.14501405  0.73698001  0.28496862    -0.06000
C566        C  0.11767286  0.75984482  0.27692374    -0.33400
C567        C  0.10108258  0.77899365  0.30273792     0.35900
C568        C  0.11217709  0.77606353  0.33721993    -0.06300
C569        C  0.13982678  0.75343251  0.34516079    -0.33300
C570        C  0.15574698  0.73354506  0.31944602     0.35800
H571        H  0.10878914  0.76251938  0.25039790     0.16100
O572        O  0.07383949  0.80000549  0.29403832    -0.60800
H573        H  0.14848909  0.75024904  0.37169274     0.16100
O574        O  0.18240196  0.71178748  0.32811714    -0.60900
H575        H  0.17127258  0.68934633  0.33372642     0.43100
H576        H  0.08382946  0.82357559  0.29198881     0.43100
C577        C  0.28904732  0.64984455  0.23934706    -0.06000
C578        C  0.28363066  0.62855414  0.26864145    -0.33400
C579        C  0.31054611  0.60876517  0.28290388     0.35900
C580        C  0.34359134  0.61072127  0.26843103    -0.06300
C581        C  0.34922872  0.63271730  0.23986265    -0.33300
C582        C  0.32234528  0.65208736  0.22531645     0.35800
H583        H  0.25811043  0.62617001  0.27979092     0.16100
O584        O  0.30458015  0.58858386  0.31152223    -0.60800
H585        H  0.37466710  0.63452502  0.22838999     0.16100
O586        O  0.32871675  0.67229602  0.19680974    -0.60900
H587        H  0.33392998  0.69564361  0.20614386     0.43100
H588        H  0.29534333  0.56644465  0.30234274     0.43100
C589        C  0.04321932  0.59450354  0.26634394    -0.06000
C590        C  0.04609661  0.59188410  0.22998780    -0.33400
C591        C  0.06981863  0.61218219  0.21152546     0.35900
C592        C  0.09050090  0.63633791  0.22909133    -0.06300
C593        C  0.08846418  0.63840890  0.26532384    -0.33300
C594        C  0.06564656  0.61731622  0.28399558     0.35800
H595        H  0.02941351  0.57445594  0.21564938     0.16100
O596        O  0.07283450  0.60798253  0.17641317    -0.60800
H597        H  0.10547790  0.65577679  0.27936447     0.16100
O598        O  0.06487663  0.62008295  0.31937129    -0.60900
H599        H  0.08073664  0.60181668  0.32798888     0.43100
H600        H  0.05676672  0.62515105  0.16607029     0.43100
C601        C  0.01793541  0.71228322  0.39017298    -0.06000
C602        C  0.98647487  0.69971138  0.40302159    -0.33400
C603        C  0.96735876  0.67497990  0.38459034     0.35900
C604        C  0.47835195  0.66457672  0.35160213    -0.06300
C605        C  0.50751356  0.67996969  0.33657643    -0.33300
C606        C  0.52749092  0.70397972  0.35516411     0.35800
H607        H  0.97669394  0.70912259  0.42751082     0.16100
O608        O  0.93716994  0.66255312  0.39836858    -0.60800
H609        H  0.51566239  0.67235888  0.31090385     0.16100
O610        O  0.55569595  0.71871248  0.33965886    -0.60900
H611        H  0.54619667  0.73713728  0.32443892     0.43100
H612        H  0.94431988  0.64537112  0.41613185     0.43100
C613        C  0.47916284  0.96088360  0.35946541    -0.06000
C614        C  0.00878229  0.94845052  0.34497797    -0.33400
C615        C  0.02875748  0.92378368  0.36252716     0.35900
C616        C  0.01960181  0.91303072  0.39620786    -0.06300
C617        C  0.52827294  0.92207314  0.36399186    -0.33300
C618        C  0.50882820  0.94596329  0.34494571     0.35800
H619        H  0.01702557  0.95735219  0.31969175     0.16100
O620        O  0.05708905  0.91006260  0.34635329    -0.60800
H621        H  0.55022934  0.90984974  0.35172667     0.16100
O622        O  0.51868289  0.95425649  0.31186060    -0.60900
H623        H  0.53743217  0.97157346  0.31456608     0.43100
H624        H  0.07647818  0.92569568  0.35245290     0.43100
C625        C  0.40025518  0.50532735  0.21597238    -0.06000
C626        C  0.36272021  0.99312697  0.22618351    -0.33400
C627        C  0.34681503  0.97403430  0.19982116     0.35900
C628        C  0.36399067  0.96912956  0.16822756    -0.06300
C629        C  0.38674993  0.49753437  0.15527409    -0.33300
C630        C  0.40527017  0.51463276  0.18127036     0.35800
H631        H  0.34933483  0.99638889  0.25055750     0.16100
O632        O  0.31467064  0.96018424  0.20531852    -0.60800
H633        H  0.39125362  0.50492036  0.12858880     0.16100
O634        O  0.42869733  0.53976021  0.17240750    -0.60900
H635        H  0.41494837  0.56126153  0.16971974     0.43100
H636        H  0.29825562  0.97931842  0.20046891     0.43100
C637        C  0.38861139  0.52649229  0.41296105    -0.06000
C638        C  0.36107871  0.50333282  0.40629351    -0.33400
C639        C  0.33870136  0.00994022  0.44341319     0.35900
C640        C  0.35700673  0.98982396  0.46745708    -0.06300
C641        C  0.38440675  0.51191256  0.47393397    -0.33300
C642        C  0.40024615  0.53051566  0.44716209     0.35800
H643        H  0.35205676  0.49924974  0.38001233     0.16100
O644        O  0.30328593  0.00985559  0.44313706    -0.60800
H645        H  0.40645161  0.49846407  0.99796290     0.16100
O646        O  0.42728769  0.55222129  0.45470179    -0.60900
H647        H  0.41659676  0.57517069  0.45882201     0.43100
H648        H  0.29666674  0.99104221  0.42697142     0.43100
C649        C  0.23372790  0.78642132  0.14671677    -0.06000
C650        C  0.22206164  0.79711058  0.11392538    -0.33400
C651        C  0.24128310  0.82068965  0.09406029     0.35900
C652        C  0.27236552  0.83449079  0.10721467    -0.06300
C653        C  0.28399135  0.82369710  0.14004129    -0.33300
C654        C  0.26541906  0.79926198  0.15932682     0.35800
H655        H  0.19853131  0.78626126  0.10314541     0.16100
O656        O  0.22902614  0.83076761  0.06223562    -0.60800
H657        H  0.30744387  0.83458481  0.15094096     0.16100
O658        O  0.27808534  0.78854547  0.19081688    -0.60900
H659        H  0.29546926  0.77054181  0.18538885     0.43100
H660        H  0.20927982  0.84628299  0.06718462     0.43100
C661        C  0.27157883  0.53779988  0.10498543    -0.06000
C662        C  0.28499181  0.55100424  0.13609162    -0.33400
C663        C  0.26592896  0.57464915  0.15600314     0.35900
C664        C  0.23299138  0.58572097  0.14485009    -0.06300
C665        C  0.21984986  0.57290526  0.11346909    -0.33300
C666        C  0.23850188  0.54878262  0.09395312     0.35800
H667        H  0.30981685  0.54208614  0.14564013     0.16100
O668        O  0.28019259  0.58760920  0.18580850    -0.60800
H669        H  0.19504093  0.58186189  0.10393213     0.16100
O670        O  0.22384093  0.53559167  0.06436857    -0.60900
H671        H  0.23440160  0.54883022  0.04510382     0.43100
H672        H  0.29824328  0.60399468  0.17790520     0.43100
C673        C  0.41301682  0.88313825  0.02313754    -0.06000
C674        C  0.40433076  0.87536173  0.48642612    -0.33400
C675        C  0.42906938  0.85522882  0.46925092     0.35900
C676        C  0.46022604  0.84668774  0.48605605    -0.06300
C677        C  0.47169816  0.86182586  0.02080992    -0.33300
C678        C  0.44577190  0.88005515  0.03821361     0.35800
H679        H  0.38023312  0.88121998  0.47328220     0.16100
O680        O  0.42236930  0.84389868  0.43625347    -0.60800
H681        H  0.49688654  0.86002476  0.03300814     0.16100
O682        O  0.45241206  0.89383794  0.07026567    -0.60900
H683        H  0.46133658  0.91748142  0.06569234     0.43100
H684        H  0.42894923  0.86341537  0.42089884     0.43100
C685        C  0.15903089  0.86122804  0.48089983    -0.06000
C686        C  0.15580218  0.88504541  0.01070391    -0.33400
C687        C  0.18230555  0.90263153  0.02817709     0.35900
C688        C  0.21560997  0.90364935  0.01392947    -0.06300
C689        C  0.21949633  0.87737981  0.48388821    -0.33300
C690        C  0.19293668  0.85761442  0.46887576     0.35800
H691        H  0.13031429  0.88428353  0.02217777     0.16100
O692        O  0.17555934  0.91785153  0.05947787    -0.60800
H693        H  0.24557431  0.87405378  0.47439835     0.16100
O694        O  0.20020453  0.83575313  0.44193538    -0.60900
H695        H  0.20779717  0.81381268  0.45299480     0.43100
H696        H  0.16769271  0.94162925  0.05376118     0.43100
O697        O  0.38194393  0.93791601  0.54465548    -0.82300
C698        C  0.24254821  0.91653493  0.52975443     0.97100
O699        O  0.26905038  0.92324767  0.51228272    -0.71400
O700        O  0.33688415  0.93667715  0.99717327    -0.75000
Al701      Al  0.31184355  0.90727676  0.52833760     1.49000
C702        C  0.34495130  0.96865246  0.99857075     0.92300
O703        O  0.32212949  0.50174693  0.58924948    -0.81200
O704        O  0.30917925  0.95410937  0.63253882    -0.74800
Al705      Al  0.34614463  0.96806373  0.56581677     1.90100
O706        O  0.26530648  0.98138070  0.58254267    -0.73900
O707        O  0.29193105  0.89148838  0.60806039    -0.73700
O708        O  0.24350642  0.91905333  0.56267152    -0.79400
O709        O  0.29014513  0.86961068  0.55556659    -0.77600
O710        O  0.31259201  0.93733182  0.56266775    -1.13700
O711        O  0.35422531  0.88841303  0.54136042    -0.72900
C712        C  0.38151134  0.90555737  0.53788393     0.97800
C713        C  0.28939459  0.50586263  0.59161361     0.94200
Al714      Al  0.27981860  0.93649084  0.59419493     1.55600
O715        O  0.33476811  0.98795881  0.52314204    -0.77500
C716        C  0.28608730  0.86628027  0.58819732     0.98400
C717        C  0.34187262  0.95776648  0.63470559     0.93300
O718        O  0.36026767  0.95077838  0.60891141    -0.82800
O719        O  0.36957088  0.56874803  0.79809184    -0.82300
C720        C  0.00920345  0.58021590  0.78096122     0.97100
O721        O  0.48250209  0.57378355  0.76275840    -0.71400
O722        O  0.41704314  0.56263201  0.74542475    -0.75000
Al723      Al  0.44136099  0.59320647  0.77875455     1.49000
C724        C  0.40789965  0.53090962  0.74752977     0.92300
O725        O  0.43136367  0.99594340  0.83568225    -0.81200
O726        O  0.44398999  0.54650969  0.88364087    -0.74800
Al727      Al  0.40323138  0.53624594  0.81833529     1.90100
O728        O  0.48338109  0.51638886  0.83215322    -0.73900
O729        O  0.46479969  0.60775808  0.85850738    -0.72900
O730        O  0.00884131  0.57758373  0.81385475    -0.79400
O731        O  0.46583875  0.62959472  0.80568510    -0.77600
O732        O  0.43914894  0.56382338  0.81358181    -1.13700
O733        O  0.40067545  0.61559410  0.79131873    -0.72900
C734        C  0.37190303  0.60068757  0.79007855     0.97800
C735        C  0.46418232  0.99232861  0.83713780     0.94200
Al736      Al  0.47302301  0.56211825  0.84441478     1.55600
O737        O  0.41006688  0.51491571  0.77580871    -0.77500
C738        C  0.47051424  0.63276316  0.83832142     0.98400
C739        C  0.41122949  0.54640661  0.88669109     0.93300
O740        O  0.39290524  0.55561285  0.86142237    -0.82800
O741        O  0.18136001  0.75160694  0.65908619    -0.82300
C742        C  0.21698057  0.61481952  0.66344761     0.97100
O743        O  0.20933572  0.63905708  0.64296764    -0.71400
O744        O  0.18959380  0.69982461  0.61588604    -0.75000
Al745      Al  0.22054635  0.68474987  0.65443011     1.49000
C746        C  0.15666126  0.70140389  0.61461331     0.92300
O747        O  0.11963890  0.68463718  0.70567701    -0.81200
O748        O  0.16925959  0.69024662  0.75533454    -0.74800
Al749      Al  0.15375611  0.71501233  0.68270375     1.90100
O750        O  0.14935041  0.63657229  0.71171479    -0.73900
O751        O  0.23332504  0.67670621  0.73628012    -0.73700
O752        O  0.21397014  0.61925622  0.69615633    -0.79400
O753        O  0.25839562  0.66980962  0.68601414    -0.77600
O754        O  0.18848731  0.68591311  0.68668866    -1.13700
O755        O  0.23388117  0.73021972  0.66380975    -0.72900
C756        C  0.21410776  0.75499041  0.65644757     0.97800
C757        C  0.12124911  0.65263274  0.71379497     0.94200
Al758      Al  0.19124058  0.65772931  0.72238562     1.55600
O759        O  0.13960091  0.69469447  0.64128359    -0.77500
C760        C  0.25974516  0.66966092  0.71904242     0.98400
C761        C  0.16216870  0.72246441  0.75262426     0.93300
O762        O  0.16470262  0.73747660  0.72388862    -0.82800
O763        O  0.49653685  0.83127678  0.93549639    -0.82300
C764        C  0.13314125  0.84918883  0.96259298     0.97100
O765        O  0.10482537  0.86492357  0.96052578    -0.71400
O766        O  0.03992749  0.88025550  0.94417361    -0.75000
Al767      Al  0.06334655  0.84309780  0.97133907     1.49000
C768        C  0.03671149  0.88390799  0.91140367     0.92300
O769        O  0.06395182  0.79847222  0.86592377    -0.81200
O770        O  0.07406986  0.74773585  0.91090754    -0.74800
Al771      Al  0.03374462  0.81398511  0.90419840     1.90100
O772        O  0.11463600  0.80435285  0.89040409    -0.73900
O773        O  0.09198755  0.76428840  0.97517877    -0.73700
O774        O  0.13524992  0.81724987  0.95450665    -0.79400
O775        O  0.07943311  0.80727421  0.50661063    -0.77600
O776        O  0.06637446  0.81418170  0.93627602    -1.13700
O777        O  0.02173163  0.82338378  0.98550710    -0.72900
C778        C  0.49569960  0.83269003  0.96850725     0.97800
C779        C  0.09679016  0.79723403  0.86418364     0.94200
Al780      Al  0.10150449  0.78551959  0.93293794     1.55600
O781        O  0.04417797  0.85942342  0.89135866    -0.77500
C782        C  0.08635561  0.77504332  0.50444762     0.98400
C783        C  0.04134758  0.74383486  0.90815916     0.93300
O784        O  0.02135005  0.76853927  0.91505694    -0.82800
C785        C  0.10317792  0.75578717  0.53291804    -0.06000
C786        C  0.13385635  0.73756036  0.52568018    -0.33400
C787        C  0.15140622  0.71899848  0.55156169     0.35900
C788        C  0.13772454  0.71741133  0.58510165    -0.06300
C789        C  0.10638205  0.73495441  0.59194901    -0.33300
C790        C  0.08939154  0.75426985  0.56628200     0.35800
H791        H  0.14471440  0.73837021  0.49987132     0.16100
O792        O  0.18153974  0.70219854  0.54366425    -0.60800
H793        H  0.09541683  0.73469512  0.61770606     0.16100
O794        O  0.05939911  0.77139573  0.57404171    -0.60900
H795        H  0.04067244  0.75438132  0.56966882     0.43100
H796        H  0.19985666  0.72004487  0.54571199     0.43100
C797        C  0.14708514  0.74260934  0.78149139    -0.06000
C798        C  0.12241029  0.76854299  0.77380779    -0.33400
C799        C  0.10592608  0.78711604  0.80018727     0.35900
C800        C  0.11465088  0.78059487  0.83483140    -0.06300
C801        C  0.13997233  0.75540338  0.84243178    -0.33300
C802        C  0.15558765  0.73604383  0.81619377     0.35800
H803        H  0.11514786  0.77382777  0.74718547     0.16100
O804        O  0.08138634  0.81136578  0.79184199    -0.60800
H805        H  0.14680016  0.74970038  0.86907736     0.16100
O806        O  0.17953557  0.71128383  0.82474353    -0.60900
H807        H  0.16591185  0.69013485  0.82980032     0.43100
H808        H  0.09404204  0.83368195  0.79065473     0.43100
C809        C  0.28887437  0.65409052  0.73816178    -0.06000
C810        C  0.28182732  0.62542705  0.75959539    -0.33400
C811        C  0.30826551  0.60805520  0.77725822     0.35900
C812        C  0.34238190  0.62021644  0.77501234    -0.06300
C813        C  0.34910253  0.65001292  0.75467650    -0.33300
C814        C  0.32268271  0.66664428  0.73605136     0.35800
H815        H  0.25570259  0.61555296  0.76160599     0.16100
O816        O  0.30041416  0.57921944  0.79647007    -0.60800
H817        H  0.37518436  0.65983900  0.75214272     0.16100
O818        O  0.33016257  0.69494744  0.71593261    -0.60900
H819        H  0.32745873  0.71518198  0.73147785     0.43100
H820        H  0.30008251  0.55980358  0.77966526     0.43100
C821        C  0.03850592  0.59655219  0.76262478    -0.06000
C822        C  0.03133303  0.61962318  0.73506965    -0.33400
C823        C  0.05768378  0.63876042  0.71918604     0.35900
C824        C  0.09200903  0.63400421  0.72983198    -0.06300
C825        C  0.09918945  0.61072143  0.75713704    -0.33300
C826        C  0.07276382  0.59246979  0.77376073     0.35800
H827        H  0.00496077  0.62377088  0.72652370     0.16100
O828        O  0.04971425  0.66125398  0.69281426    -0.60800
H829        H  0.12549763  0.60714857  0.76615399     0.16100
O830        O  0.08070773  0.57093976  0.80092409    -0.60900
H831        H  0.08392436  0.54775769  0.79041272     0.43100
H832        H  0.04373361  0.68334384  0.70439218     0.43100
C833        C  0.02527414  0.71258050  0.89272849    -0.06000
C834        C  0.99171041  0.70338464  0.90311480    -0.33400
C835        C  0.97261831  0.67843640  0.88502573     0.35900
C836        C  0.48692285  0.66370692  0.85352334    -0.06300
C837        C  0.52139201  0.67136604  0.84531257    -0.33300
C838        C  0.54011876  0.69620943  0.86430787     0.35800
H839        H  0.98001683  0.71597345  0.92521117     0.16100
O840        O  0.94020449  0.66972028  0.89632102    -0.60800
H841        H  0.53417545  0.65729322  0.82476366     0.16100
O842        O  0.57358163  0.70332503  0.85526948    -0.60900
H843        H  0.57192088  0.71665491  0.83335191     0.43100
H844        H  0.94396936  0.65230987  0.91487719     0.43100
C845        C  0.48107496  0.96215047  0.85393692    -0.06000
C846        C  0.01162386  0.95071544  0.84484886    -0.33400
C847        C  0.03186463  0.92780211  0.86427116     0.35900
C848        C  0.01932866  0.91402895  0.89553976    -0.06300
C849        C  0.48702753  0.92398592  0.90408527    -0.33300
C850        C  0.46695798  0.94667267  0.88382966     0.35800
H851        H  0.02235930  0.96185492  0.82146332     0.16100
O852        O  0.06386444  0.91863455  0.85224477    -0.60800
H853        H  0.47549796  0.91164316  0.92646349     0.16100
O854        O  0.43420632  0.95475058  0.89443484    -0.60900
H855        H  0.41917001  0.93658993  0.88426846     0.43100
H856        H  0.08008502  0.93544873  0.86285596     0.43100
C857        C  0.39128175  0.51230300  0.71840576    -0.06000
C858        C  0.35817882  0.99987442  0.72247447    -0.33400
C859        C  0.34222876  0.98019049  0.69642501     0.35900
C860        C  0.35844895  0.97634677  0.66415905    -0.06300
C861        C  0.38980822  0.49191686  0.65908944    -0.33300
C862        C  0.40477302  0.51276139  0.68482614     0.35800
H863        H  0.34592103  0.00162061  0.74759308     0.16100
O864        O  0.31130736  0.96423498  0.70310140    -0.60800
H865        H  0.40085160  0.49257286  0.63337383     0.16100
O866        O  0.43323270  0.53244397  0.67718460    -0.60900
H867        H  0.42391521  0.55526611  0.66993237     0.43100
H868        H  0.29347440  0.98207875  0.69836330     0.43100
C869        C  0.39369716  0.52897893  0.91610343    -0.06000
C870        C  0.36066181  0.51438392  0.91025326    -0.33400
C871        C  0.34514642  0.99008980  0.93712621     0.35900
C872        C  0.36158711  0.98637687  0.96922815    -0.06300
C873        C  0.39366828  0.50263789  0.97327232    -0.33300
C874        C  0.41025952  0.52267673  0.94798037     0.35800
H875        H  0.34746904  0.51816538  0.88574370     0.16100
O876        O  0.31319252  0.97580086  0.93140881    -0.60800
H877        H  0.39391940  0.51541695  0.50013104     0.16100
O878        O  0.44262108  0.53559797  0.95460986    -0.60900
H879        H  0.43877390  0.55945666  0.96324185     0.43100
H880        H  0.31781599  0.95263921  0.92140286     0.43100
C881        C  0.23027870  0.78562085  0.64042579    -0.06000
C882        C  0.22172010  0.79436300  0.60614631    -0.33400
C883        C  0.24140860  0.81875712  0.58767095     0.35900
C884        C  0.26986394  0.83515707  0.60368925    -0.06300
C885        C  0.27845028  0.82605659  0.63791437    -0.33300
C886        C  0.25946771  0.80098514  0.65589182     0.35800
H887        H  0.20039093  0.78141965  0.59326591     0.16100
O888        O  0.23226734  0.82683241  0.55426364    -0.60800
H889        H  0.29989852  0.83866946  0.65090141     0.16100
O890        O  0.26934660  0.79192851  0.68885343    -0.60900
H891        H  0.28792785  0.77455185  0.68587365     0.43100
H892        H  0.21018042  0.83966555  0.55609307     0.43100
C893        C  0.27356382  0.53631442  0.60854984    -0.06000
C894        C  0.28337820  0.54521526  0.64250929    -0.33400
C895        C  0.26361716  0.56870594  0.66212578     0.35900
C896        C  0.23360030  0.58385411  0.64777168    -0.06300
C897        C  0.22379179  0.57444770  0.61395111    -0.33300
C898        C  0.24318538  0.55083910  0.59464562     0.35800
H899        H  0.30575797  0.53305052  0.65430053     0.16100
O900        O  0.27423541  0.57711800  0.69495186    -0.60800
H901        H  0.20114436  0.58603194  0.60209482     0.16100
O902        O  0.23186740  0.54161893  0.56223259    -0.60900
H903        H  0.24361083  0.55780478  0.54616389     0.43100
H904        H  0.29409088  0.59302647  0.69177239     0.43100
C905        C  0.41023513  0.88791044  0.52017643    -0.06000
C906        C  0.40674093  0.86811035  0.99050181    -0.33400
C907        C  0.43297232  0.85095207  0.97246398     0.35900
C908        C  0.46585685  0.84740206  0.98760532    -0.06300
C909        C  0.46555872  0.85864829  0.52033084    -0.33300
C910        C  0.44101361  0.87926095  0.53718891     0.35800
H911        H  0.38144941  0.87039013  0.97856033     0.16100
O912        O  0.42606065  0.83756922  0.94029685    -0.60800
H913        H  0.48933988  0.85279370  0.53400926     0.16100
O914        O  0.44677475  0.88962865  0.57066200    -0.60900
H915        H  0.45956522  0.91180601  0.56872715     0.43100
H916        H  0.42892404  0.85725903  0.92403220     0.43100
C917        C  0.16205023  0.86766587  0.97929663    -0.06000
C918        C  0.15249177  0.88404409  0.50857868    -0.33400
C919        C  0.17911388  0.90296820  0.52424693     0.35900
C920        C  0.21295678  0.89996017  0.51186673    -0.06300
C921        C  0.22148328  0.88685381  0.98197316    -0.33300
C922        C  0.19516916  0.86853943  0.96502628     0.35800
H923        H  0.12651005  0.88685364  0.51850840     0.16100
O924        O  0.17179723  0.92402767  0.55180558    -0.60800
H925        H  0.24698279  0.88678959  0.97054478     0.16100
O926        O  0.20185468  0.85243213  0.93416180    -0.60900
H927        H  0.20947190  0.82872571  0.94052635     0.43100
H928        H  0.16725069  0.94714718  0.54154038     0.43100
O929        O  0.88333589  0.43354829  0.04623788    -0.82300
C930        C  0.74318204  0.42027525  0.03120193     0.97100
O931        O  0.76984656  0.42687105  0.01406423    -0.71400
O932        O  0.83359003  0.43805694  0.49492899    -0.75000
Al933      Al  0.81153662  0.40752577  0.02871015     1.49000
C934        C  0.84221875  0.46983592  0.49704131     0.92300
O935        O  0.82506759  0.00109661  0.09140575    -0.81200
O936        O  0.81223227  0.45079117  0.13456599    -0.74800
Al937      Al  0.84946881  0.46462913  0.06813111     1.90100
O938        O  0.76936794  0.48157408  0.08559513    -0.73900
O939        O  0.79171211  0.39013854  0.10823825    -0.73700
O940        O  0.74419228  0.42123495  0.06419257    -0.79400
O941        O  0.78799385  0.36987259  0.05515549    -0.77600
O942        O  0.81424052  0.43611832  0.06399992    -1.13700
O943        O  0.85304606  0.38577854  0.04013892    -0.72900
C944        C  0.88135696  0.40154723  0.03849236     0.97800
C945        C  0.79232110  0.00514907  0.09302350     0.94200
Al946      Al  0.78167945  0.43591277  0.09588108     1.55600
O947        O  0.83996881  0.48684201  0.02641671    -0.77500
C948        C  0.78435131  0.36581449  0.08782635     0.98400
C949        C  0.84513005  0.45153822  0.13603383     0.93300
O950        O  0.86239727  0.44421774  0.10977097    -0.82800
O951        O  0.87057965  0.06721598  0.29590380    -0.82300
C952        C  0.51108635  0.07768386  0.28241127     0.97100
O953        O  0.98544091  0.07117795  0.26560332    -0.71400
O954        O  0.92095425  0.05960422  0.24530532    -0.75000
Al955      Al  0.94336616  0.09120285  0.27827099     1.49000
C956        C  0.91187594  0.02805470  0.24822991     0.92300
O957        O  0.93426255  0.49372618  0.33865516    -0.81200
O958        O  0.94093332  0.04896997  0.38525248    -0.74800
Al959      Al  0.90382066  0.03542053  0.31829342     1.90100
O960        O  0.98390061  0.01800420  0.33756077    -0.73900
O961        O  0.96098735  0.10955364  0.35805157    -0.72900
O962        O  0.51043747  0.07656377  0.31536164    -0.79400
O963        O  0.96596686  0.12883066  0.30450822    -0.77600
O964        O  0.93947078  0.06337793  0.31429327    -1.13700
O965        O  0.90211508  0.11375218  0.28750427    -0.72900
C966        C  0.87329511  0.09892272  0.28697458     0.97800
C967        C  0.96680797  0.49157402  0.34340905     0.94200
Al968      Al  0.97160545  0.06380137  0.34693361     1.55600
O969        O  0.91310641  0.01296758  0.27697898    -0.77500
C970        C  0.96812349  0.13355036  0.33713946     0.98400
C971        C  0.90809064  0.04792055  0.38655214     0.93300
O972        O  0.89074101  0.05549439  0.36017001    -0.82800
O973        O  0.68001377  0.25075253  0.16010243    -0.82300
C974        C  0.72017989  0.11515330  0.16281532     0.97100
O975        O  0.71268784  0.13954209  0.14246522    -0.71400
O976        O  0.69168894  0.20018207  0.11635813    -0.75000
Al977      Al  0.72174393  0.18533762  0.15533881     1.49000
C978        C  0.65885242  0.20091424  0.11364895     0.92300
O979        O  0.61955348  0.18031230  0.20349208    -0.81200
O980        O  0.66763276  0.18659441  0.25499798    -0.74800
Al981      Al  0.65303390  0.21249464  0.18214528     1.90100
O982        O  0.65071059  0.13322517  0.20989808    -0.73900
O983        O  0.73284753  0.17572493  0.23724763    -0.73700
O984        O  0.71617459  0.11880048  0.19548195    -0.79400
O985        O  0.75910737  0.17103790  0.18742485    -0.77600
O986        O  0.68870827  0.18454421  0.18662769    -1.13700
O987        O  0.73298652  0.23103820  0.16618791    -0.72900
C988        C  0.71271088  0.25521725  0.15815248     0.97800
C989        C  0.62211040  0.14839908  0.21174560     0.94200
Al990      Al  0.69161727  0.15569934  0.22190175     1.55600
O991        O  0.64088422  0.19294427  0.13944242    -0.77500
C992        C  0.75988950  0.16996068  0.22042621     0.98400
C993        C  0.65906134  0.21847320  0.25278093     0.93300
O994        O  0.66169417  0.23421988  0.22439455    -0.82800
O995        O  0.99334734  0.32634648  0.43792839    -0.82300
C996        C  0.63146318  0.34568802  0.46327719     0.97100
O997        O  0.60300149  0.36111269  0.46208024    -0.71400
O998        O  0.53895646  0.37709469  0.44625466    -0.75000
Al999      Al  0.56158674  0.33955736  0.47297247     1.49000
C1000       C  0.53615027  0.38122780  0.41352776     0.92300
O1001       O  0.56076421  0.29543703  0.36697174    -0.81200
O1002       O  0.57154582  0.24512415  0.41172919    -0.74800
Al1003     Al  0.53132446  0.31130345  0.40583337     1.90100
O1004       O  0.61185922  0.30136451  0.39041100    -0.73900
O1005       O  0.59086387  0.26073450  0.47534990    -0.73700
O1006       O  0.63370217  0.31393403  0.45457525    -0.79400
O1007       O  0.58358429  0.31113486  0.00676177    -0.77600
O1008       O  0.56428383  0.31104208  0.43755473    -1.13700
O1009       O  0.51939441  0.32062345  0.48744732    -0.72900
C1010       C  0.99215024  0.32653106  0.47092635     0.97800
C1011       C  0.59353803  0.29380310  0.36460891     0.94200
Al1012     Al  0.59948164  0.28242923  0.43329788     1.55600
O1013       O  0.54210984  0.35661171  0.39310435    -0.77500
C1014       C  0.59191360  0.27922926  0.00470139     0.98400
C1015       C  0.53879131  0.24149507  0.40937689     0.93300
O1016       O  0.51888174  0.26606556  0.41692832    -0.82800
C1017       C  0.60850270  0.26036937  0.03349488    -0.06000
C1018       C  0.64285424  0.24938413  0.02920905    -0.33400
C1019       C  0.65926560  0.22846371  0.05402425     0.35900
C1020       C  0.64109789  0.21755801  0.08359560    -0.06300
C1021       C  0.60613396  0.22767303  0.08705083    -0.33300
C1022       C  0.58992912  0.24886888  0.06230898     0.35800
H1023       H  0.65708843  0.25715559  0.00636338     0.16100
O1024       O  0.69288530  0.21861029  0.04889335    -0.60800
H1025       H  0.59139105  0.21997507  0.10956324     0.16100
O1026       O  0.55596604  0.25796691  0.06641263    -0.60900
H1027       H  0.54255159  0.23934970  0.05484531     0.43100
H1028       H  0.70704213  0.23885372  0.05586689     0.43100
C1029       C  0.64269957  0.23748073  0.28187514    -0.06000
C1030       C  0.61827702  0.26366327  0.27421877    -0.33400
C1031       C  0.60184845  0.28237585  0.30058023     0.35900
C1032       C  0.61061541  0.27605905  0.33527240    -0.06300
C1033       C  0.63493769  0.24988104  0.34293070    -0.33300
C1034       C  0.65007613  0.23001178  0.31669988     0.35800
H1035       H  0.61135674  0.26925854  0.24757096     0.16100
O1036       O  0.57739355  0.30667149  0.29214386    -0.60800
H1037       H  0.64126984  0.24381547  0.36961544     0.16100
O1038       O  0.67244261  0.20386630  0.32542932    -0.60900
H1039       H  0.65759308  0.18327718  0.32927412     0.43100
H1040       H  0.59028646  0.32874476  0.28982062     0.43100
C1041       C  0.78987871  0.15559716  0.23951762    -0.06000
C1042       C  0.78361237  0.13428190  0.26859834    -0.33400
C1043       C  0.81029288  0.11544522  0.28441650     0.35900
C1044       C  0.84409076  0.11864102  0.27203856    -0.06300
C1045       C  0.85060537  0.14104753  0.24388560    -0.33300
C1046       C  0.82380302  0.15911386  0.22744144     0.35800
H1047       H  0.75757989  0.13088679  0.27820811     0.16100
O1048       O  0.80316264  0.09453101  0.31222233    -0.60800
H1049       H  0.87655483  0.14371509  0.23381665     0.16100
O1050       O  0.83093482  0.17928397  0.19908893    -0.60900
H1051       H  0.83252545  0.20328241  0.20807684     0.43100
H1052       H  0.79590938  0.07207611  0.30207344     0.43100
C1053       C  0.54033695  0.09328665  0.26331949    -0.06000
C1054       C  0.53287791  0.11488712  0.23468264    -0.33400
C1055       C  0.55897328  0.13331742  0.21766411     0.35900
C1056       C  0.59340084  0.12926077  0.22818438    -0.06300
C1057       C  0.60098277  0.10718570  0.25640623    -0.33300
C1058       C  0.57473926  0.08973967  0.27425082     0.35800
H1059       H  0.50642962  0.11855363  0.22615961     0.16100
O1060       O  0.55061930  0.15462099  0.19044098    -0.60800
H1061       H  0.62739090  0.10422339  0.26535143     0.16100
O1062       O  0.58297647  0.06968117  0.30243973    -0.60900
H1063       H  0.58584646  0.04591730  0.29319579     0.43100
H1064       H  0.54517695  0.17731673  0.20108613     0.43100
C1065       C  0.52272809  0.21106308  0.39297517    -0.06000
C1066       C  0.48948783  0.20113859  0.40356501    -0.33400
C1067       C  0.47054617  0.17673262  0.38476360     0.35900
C1068       C  0.98406299  0.16465846  0.35190401    -0.06300
C1069       C  0.01734885  0.17417361  0.34125783    -0.33300
C1070       C  0.03695624  0.19787858  0.36066035     0.35800
H1071       H  0.47803405  0.21261593  0.42638522     0.16100
O1072       O  0.43844386  0.16695609  0.39613066    -0.60800
H1073       H  0.02868182  0.16223925  0.31860019     0.16100
O1074       O  0.06901951  0.20740835  0.34914796    -0.60900
H1075       H  0.06470507  0.22165886  0.32817629     0.43100
H1076       H  0.44277428  0.14957103  0.41458909     0.43100
C1077       C  0.98263302  0.46146303  0.36050427    -0.06000
C1078       C  0.51541592  0.45067276  0.34828713    -0.33400
C1079       C  0.53409495  0.42582183  0.36685707     0.35900
C1080       C  0.52107012  0.41265396  0.39822924    -0.06300
C1081       C  0.98624887  0.42270597  0.41011754    -0.33300
C1082       C  0.96752868  0.44657937  0.39016189     0.35800
H1083       H  0.52623172  0.46124399  0.32468135     0.16100
O1084       O  0.56476191  0.41395296  0.35375963    -0.60800
H1085       H  0.97404502  0.41061629  0.43228309     0.16100
O1086       O  0.93520912  0.45632813  0.40074193    -0.60900
H1087       H  0.91913480  0.43985635  0.38934962     0.43100
H1088       H  0.58289928  0.42762355  0.36569641     0.43100
C1089       C  0.89573589  0.00900518  0.21951550    -0.06000
C1090       C  0.87658688  0.47751370  0.22525970    -0.33400
C1091       C  0.85766729  0.46041669  0.19947476     0.35900
C1092       C  0.86400209  0.46812331  0.16471627    -0.06300
C1093       C  0.89574376  0.98593952  0.16142588    -0.33300
C1094       C  0.91116895  0.00649390  0.18697655     0.35800
H1095       H  0.87120476  0.47129320  0.25206945     0.16100
O1096       O  0.83387631  0.43569891  0.20845085    -0.60800
H1097       H  0.90819894  0.98441968  0.13641435     0.16100
O1098       O  0.94176326  0.02306066  0.18026415    -0.60900
H1099       H  0.93509959  0.04544734  0.16952349     0.43100
H1100       H  0.81199792  0.44853563  0.21190933     0.43100
C1101       C  0.88976544  0.03023571  0.41499891    -0.06000
C1102       C  0.86849447  0.00177310  0.40653222    -0.33400
C1103       C  0.84614631  0.48406011  0.43327894     0.35900
C1104       C  0.85735412  0.48891327  0.46750188    -0.06300
C1105       C  0.87504942  0.02186960  0.47525414    -0.33300
C1106       C  0.89311585  0.04013385  0.44965938     0.35800
H1107       H  0.86590134  0.99353965  0.37984623     0.16100
O1108       O  0.81994186  0.46130709  0.42581402    -0.60800
H1109       H  0.90693874  0.00149895  0.00073034     0.16100
O1110       O  0.91377209  0.06754158  0.45875419    -0.60900
H1111       H  0.89804741  0.08777718  0.45986820     0.43100
H1112       H  0.83161681  0.43951825  0.41901315     0.43100
C1113       C  0.72852128  0.28620375  0.14199346    -0.06000
C1114       C  0.71660407  0.29797822  0.10959325    -0.33400
C1115       C  0.73599164  0.32191199  0.09009730     0.35900
C1116       C  0.76748413  0.33496753  0.10325595    -0.06300
C1117       C  0.77897233  0.32346237  0.13583966    -0.33300
C1118       C  0.76019573  0.29897882  0.15479234     0.35800
H1119       H  0.69280600  0.28773098  0.09884984     0.16100
O1120       O  0.72298346  0.33376783  0.05919602    -0.60800
H1121       H  0.80255767  0.33388311  0.14690895     0.16100
O1122       O  0.77274242  0.28803448  0.18625896    -0.60900
H1123       H  0.79089564  0.27083225  0.18077403     0.43100
H1124       H  0.73092768  0.31690316  0.04163374     0.43100
C1125       C  0.77635498  0.03612143  0.10874934    -0.06000
C1126       C  0.78919862  0.04914977  0.14023687    -0.33400
C1127       C  0.77010013  0.07340477  0.15944645     0.35900
C1128       C  0.73754742  0.08474481  0.14737511    -0.06300
C1129       C  0.72521968  0.07214624  0.11556258    -0.33300
C1130       C  0.74415374  0.04804438  0.09646269     0.35800
H1131       H  0.81354870  0.03972411  0.15051186     0.16100
O1132       O  0.78393538  0.08663626  0.18936696    -0.60800
H1133       H  0.70088594  0.08148946  0.10518938     0.16100
O1134       O  0.73067892  0.03587644  0.06589455    -0.60900
H1135       H  0.74198363  0.04979846  0.04753960     0.43100
H1136       H  0.80062343  0.10451605  0.18165036     0.43100
C1137       C  0.91021158  0.38304708  0.02221902    -0.06000
C1138       C  0.90256451  0.35960695  0.49314778    -0.33400
C1139       C  0.92876372  0.34108836  0.47644640     0.35900
C1140       C  0.96249472  0.34170196  0.48984005    -0.06300
C1141       C  0.96655794  0.35591115  0.02356325    -0.33300
C1142       C  0.94097381  0.37563766  0.03987717     0.35800
H1143       H  0.87669318  0.35881314  0.48233005     0.16100
O1144       O  0.92102321  0.32214456  0.44741636    -0.60800
H1145       H  0.99031700  0.35093975  0.03763069     0.16100
O1146       O  0.94585117  0.38658769  0.07330756    -0.60900
H1147       H  0.95614906  0.41002694  0.07127767     0.43100
H1148       H  0.92183244  0.33893906  0.42796838     0.43100
C1149       C  0.66036946  0.36462637  0.47951905    -0.06000
C1150       C  0.65272780  0.39283460  0.00533518    -0.33400
C1151       C  0.67941456  0.41058634  0.02227424     0.35900
C1152       C  0.71368953  0.40483862  0.01244222    -0.06300
C1153       C  0.71924230  0.38570631  0.48116841    -0.33300
C1154       C  0.69339510  0.36596718  0.46502239     0.35800
H1155       H  0.62639827  0.39742867  0.01352482     0.16100
O1156       O  0.67173533  0.43312522  0.04853563    -0.60800
H1157       H  0.74471461  0.38601302  0.46968326     0.16100
O1158       O  0.70038778  0.34902668  0.43468059    -0.60900
H1159       H  0.70856772  0.32572232  0.44179578     0.43100
H1160       H  0.67159937  0.45640129  0.03761762     0.43100
O1161       O  0.88348680  0.43155771  0.54673677    -0.82300
C1162       C  0.74260417  0.41928353  0.53117720     0.97100
O1163       O  0.76909111  0.42652121  0.51402781    -0.71400
O1164       O  0.83448945  0.43923518  0.99565929    -0.75000
Al1165     Al  0.81095260  0.40693692  0.52833807     1.49000
C1166       C  0.84259861  0.47120941  0.99806840     0.92300
O1167       O  0.81669823  0.00480335  0.58791708    -0.81200
O1168       O  0.81132247  0.45150476  0.63400887    -0.74800
Al1169     Al  0.84975399  0.46386335  0.56783126     1.90100
O1170       O  0.76932476  0.48139905  0.58455441    -0.73900
O1171       O  0.79196684  0.39024458  0.60818065    -0.73700
O1172       O  0.74396956  0.42026732  0.56414050    -0.79400
O1173       O  0.78812927  0.36958878  0.55514216    -0.77600
O1174       O  0.81425361  0.43558129  0.56371611    -1.13700
O1175       O  0.85208041  0.38477787  0.53916313    -0.72900
C1176       C  0.88080261  0.39971105  0.53821212     0.97800
C1177       C  0.78397184  0.00689809  0.59137065     0.94200
Al1178     Al  0.78152170  0.43576522  0.59542752     1.55600
O1179       O  0.84092984  0.48535851  0.52553869    -0.77500
C1180       C  0.78547826  0.36555752  0.58786982     0.98400
C1181       C  0.84407171  0.45329875  0.63648196     0.93300
O1182       O  0.86226699  0.44515481  0.61092172    -0.82800
O1183       O  0.86831044  0.06807138  0.79980637    -0.82300
C1184       C  0.50705831  0.08341297  0.77923227     0.97100
O1185       O  0.98056760  0.07485179  0.76414944    -0.71400
O1186       O  0.91523011  0.06449501  0.74711728    -0.75000
Al1187     Al  0.93982252  0.09363870  0.78145466     1.49000
C1188       C  0.90671748  0.03254331  0.74786477     0.92300
O1189       O  0.92995617  0.49688585  0.83917953    -0.81200
O1190       O  0.94314167  0.04350604  0.88414067    -0.74800
Al1191     Al  0.90219979  0.03494407  0.81878285     1.90100
O1192       O  0.98222621  0.01512805  0.83110131    -0.73900
O1193       O  0.96380033  0.10484116  0.86132635    -0.72900
O1194       O  0.50751488  0.07933822  0.81199520    -0.79400
O1195       O  0.96463004  0.12884204  0.80952705    -0.77600
O1196       O  0.93795340  0.06288891  0.81498306    -1.13700
O1197       O  0.89946636  0.11529286  0.79569053    -0.72900
C1198       C  0.87076018  0.10040505  0.79358535     0.97800
C1199       C  0.96260546  0.49217020  0.84101654     0.94200
Al1200     Al  0.97202027  0.06008720  0.84534826     1.55600
O1201       O  0.90932173  0.01532505  0.77541043    -0.77500
C1202       C  0.96941344  0.13062994  0.84224192     0.98400
C1203       C  0.91041208  0.04378862  0.88753056     0.93300
O1204       O  0.89172019  0.05266097  0.86241798    -0.82800
O1205       O  0.68286741  0.25349418  0.66241768    -0.82300
C1206       C  0.71698562  0.11695653  0.66546301     0.97100
O1207       O  0.71201535  0.14198969  0.64516502    -0.71400
O1208       O  0.69348932  0.20309267  0.61895918    -0.75000
Al1209     Al  0.72255259  0.18721646  0.65852129     1.49000
C1210       C  0.66065027  0.20415815  0.61609911     0.92300
O1211       O  0.61935147  0.18601878  0.70527216    -0.81200
O1212       O  0.66726837  0.19042142  0.75699417    -0.74800
Al1213     Al  0.65441330  0.21660524  0.68424477     1.90100
O1214       O  0.64870763  0.13788093  0.71130110    -0.73900
O1215       O  0.73174154  0.17665561  0.74050172    -0.73700
O1216       O  0.71316303  0.12073717  0.69811422    -0.79400
O1217       O  0.75883708  0.17144756  0.69114680    -0.77600
O1218       O  0.68902072  0.18750515  0.68925070    -1.13700
O1219       O  0.73511056  0.23239222  0.67006824    -0.72900
C1220       C  0.71568598  0.25690533  0.66110332     0.97800
C1221       C  0.62059631  0.15389833  0.71286074     0.94200
Al1222     Al  0.69013867  0.15852213  0.72430386     1.55600
O1223       O  0.64239095  0.19688007  0.64184911    -0.77500
C1224       C  0.75890082  0.17039345  0.72414423     0.98400
C1225       C  0.66024962  0.22265007  0.75458763     0.93300
O1226       O  0.66339855  0.23828744  0.72623876    -0.82800
O1227       O  0.99348502  0.32660315  0.93804836    -0.82300
C1228       C  0.63054470  0.34900371  0.96378551     0.97100
O1229       O  0.60197051  0.36424357  0.96198917    -0.71400
O1230       O  0.53733310  0.37926769  0.94517187    -0.75000
Al1231     Al  0.56065476  0.34219959  0.97280032     1.49000
C1232       C  0.53414729  0.38269856  0.91232714     0.92300
O1233       O  0.56151177  0.29710961  0.86768523    -0.81200
O1234       O  0.57252586  0.24710849  0.91250593    -0.74800
Al1235     Al  0.53126757  0.31255451  0.90580451     1.90100
O1236       O  0.61213059  0.30434169  0.89192509    -0.73900
O1237       O  0.59007426  0.26350953  0.97637734    -0.73700
O1238       O  0.63288782  0.31702790  0.95598422    -0.79400
O1239       O  0.58424176  0.30806236  0.50613647    -0.77600
O1240       O  0.56392806  0.31328958  0.93783324    -1.13700
O1241       O  0.51885990  0.32256236  0.98696145    -0.72900
C1242       C  0.99243625  0.32871492  0.97095187     0.97800
C1243       C  0.59435418  0.29668874  0.86579708     0.94200
Al1244     Al  0.59941904  0.28509129  0.93440681     1.55600
O1245       O  0.54121393  0.35794124  0.89246277    -0.77500
C1246       C  0.59289562  0.27633957  0.50373034     0.98400
C1247       C  0.53986684  0.24264992  0.91033974     0.93300
O1248       O  0.51944925  0.26701198  0.91726367    -0.82800
C1249       C  0.60953911  0.25774744  0.53257288    -0.06000
C1250       C  0.64200186  0.24231631  0.52699285    -0.33400
C1251       C  0.65900539  0.22409850  0.55349090     0.35900
C1252       C  0.64293279  0.21997892  0.58578072    -0.06300
C1253       C  0.60995793  0.23488640  0.59082932    -0.33300
C1254       C  0.59349187  0.25384955  0.56466179     0.35800
H1255       H  0.65453368  0.24501851  0.50208843     0.16100
O1256       O  0.69098382  0.21019058  0.54740859    -0.60800
H1257       H  0.59710532  0.23276653  0.61559924     0.16100
O1258       O  0.56170732  0.26824702  0.57063269    -0.60900
H1259       H  0.54480878  0.24975265  0.56496781     0.43100
H1260       H  0.70750399  0.22945026  0.55126627     0.43100
C1261       C  0.64450147  0.24212246  0.78330405    -0.06000
C1262       C  0.61676301  0.26467449  0.77583416    -0.33400
C1263       C  0.60045206  0.28345557  0.80210233     0.35900
C1264       C  0.61238703  0.28053723  0.83631087    -0.06300
C1265       C  0.64065338  0.25856303  0.84356618    -0.33300
C1266       C  0.65622421  0.23897979  0.81749904     0.35800
H1267       H  0.60717658  0.26714508  0.74953154     0.16100
O1268       O  0.57272386  0.30411601  0.79415019    -0.60800
H1269       H  0.64996160  0.25548037  0.86989324     0.16100
O1270       O  0.68338298  0.21761594  0.82556021    -0.60900
H1271       H  0.67266050  0.19553998  0.83308395     0.43100
H1272       H  0.58265161  0.32738264  0.78972811     0.43100
C1273       C  0.78806213  0.15570475  0.74394240    -0.06000
C1274       C  0.78073658  0.13107600  0.76992779    -0.33400
C1275       C  0.80723602  0.11317016  0.78698703     0.35900
C1276       C  0.84172009  0.12057972  0.77899724    -0.06300
C1277       C  0.84902681  0.14645849  0.75415714    -0.33300
C1278       C  0.82249019  0.16367163  0.73642924     0.35800
H1279       H  0.75422233  0.12457806  0.77605162     0.16100
O1280       O  0.79917965  0.08883436  0.81157896    -0.60800
H1281       H  0.87550286  0.15245474  0.74740873     0.16100
O1282       O  0.83047294  0.18780159  0.71161793    -0.60900
H1283       H  0.82979306  0.21042479  0.72372324     0.43100
H1284       H  0.79439001  0.06728841  0.79845124     0.43100
C1285       C  0.53643457  0.09925808  0.76077778    -0.06000
C1286       C  0.52960861  0.12516512  0.73582983    -0.33400
C1287       C  0.55650069  0.14345606  0.71989029     0.35900
C1288       C  0.59087719  0.13507275  0.72783453    -0.06300
C1289       C  0.59759926  0.10867129  0.75232328    -0.33300
C1290       C  0.57074723  0.09117142  0.76900323     0.35800
H1291       H  0.50321043  0.13214055  0.72952393     0.16100
O1292       O  0.54889845  0.16894314  0.69628013    -0.60800
H1293       H  0.62392875  0.10214063  0.75936067     0.16100
O1294       O  0.57835021  0.06645446  0.79341430    -0.60900
H1295       H  0.57742481  0.04409057  0.78084837     0.43100
H1296       H  0.54573773  0.19026248  0.71019587     0.43100
C1297       C  0.52443181  0.21123058  0.89506759    -0.06000
C1298       C  0.49334486  0.19859680  0.90878703    -0.33400
C1299       C  0.47387554  0.17372749  0.89100250     0.35900
C1300       C  0.98601609  0.16070493  0.85870741    -0.06300
C1301       C  0.01843983  0.17167795  0.84689063    -0.33300
C1302       C  0.03789973  0.19591296  0.86578406     0.35800
H1303       H  0.48383089  0.20852438  0.93318233     0.16100
O1304       O  0.44389863  0.16153998  0.90541545    -0.60800
H1305       H  0.02912563  0.16074509  0.82342929     0.16100
O1306       O  0.06922470  0.20659944  0.85323523    -0.60900
H1307       H  0.06368760  0.22135973  0.83293620     0.43100
H1308       H  0.45124980  0.14326465  0.92196327     0.43100
C1309       C  0.97809799  0.46081862  0.85695325    -0.06000
C1310       C  0.51150579  0.45086789  0.84589040    -0.33400
C1311       C  0.53070987  0.42680918  0.86505779     0.35900
C1312       C  0.51750680  0.41313265  0.89612826    -0.06300
C1313       C  0.98349571  0.42207167  0.90672413    -0.33300
C1314       C  0.96401333  0.44585408  0.88712466     0.35800
H1315       H  0.52283874  0.46206434  0.82282267     0.16100
O1316       O  0.56234129  0.41648961  0.85298921    -0.60800
H1317       H  0.97222238  0.41059428  0.92967114     0.16100
O1318       O  0.93202409  0.45554866  0.89867880    -0.60900
H1319       H  0.91564577  0.43911401  0.88765815     0.43100
H1320       H  0.57926451  0.43210184  0.86430975     0.43100
C1321       C  0.89012745  0.01508342  0.71808589    -0.06000
C1322       C  0.86326663  0.49089256  0.72548515    -0.33400
C1323       C  0.84738006  0.47130814  0.69934361     0.35900
C1324       C  0.86098368  0.47168369  0.66573348    -0.06300
C1325       C  0.88949214  0.99538726  0.65852954    -0.33300
C1326       C  0.90446300  0.01548365  0.68486693     0.35800
H1327       H  0.85288519  0.48958600  0.75147429     0.16100
O1328       O  0.81919260  0.45127833  0.70713497    -0.60800
H1329       H  0.90120575  0.99598846  0.63311421     0.16100
O1330       O  0.93381731  0.03419724  0.67823133    -0.60900
H1331       H  0.92552597  0.05724360  0.67045090     0.43100
H1332       H  0.79908008  0.46703843  0.70499310     0.43100
C1333       C  0.89318423  0.02773757  0.91769676    -0.06000
C1334       C  0.86032632  0.01249609  0.91267559    -0.33400
C1335       C  0.84470309  0.49146925  0.93623701     0.35900
C1336       C  0.85925098  0.49012332  0.96941323    -0.06300
C1337       C  0.89386244  0.00442553  0.97601394    -0.33300
C1338       C  0.90987972  0.02358875  0.94980022     0.35800
H1339       H  0.84700344  0.01490658  0.88805922     0.16100
O1340       O  0.81431700  0.47461630  0.92909425    -0.60800
H1341       H  0.87816279  0.02994614  0.50194104     0.16100
O1342       O  0.94189687  0.03765934  0.95569910    -0.60900
H1343       H  0.93739568  0.06150729  0.96404423     0.43100
H1344       H  0.82122263  0.45107182  0.92163981     0.43100
C1345       C  0.73227247  0.28644835  0.64363507    -0.06000
C1346       C  0.72053636  0.29635089  0.61061647    -0.33400
C1347       C  0.73955310  0.31977035  0.59037881     0.35900
C1348       C  0.77040188  0.33414470  0.60346609    -0.06300
C1349       C  0.78243758  0.32357652  0.63616049    -0.33300
C1350       C  0.76408051  0.29941904  0.65583102     0.35800
H1351       H  0.69709122  0.28512362  0.60004580     0.16100
O1352       O  0.72731542  0.32916570  0.55833456    -0.60800
H1353       H  0.80590372  0.33468392  0.64681417     0.16100
O1354       O  0.77704667  0.28916575  0.68735743    -0.60900
H1355       H  0.79478215  0.27148063  0.68200566     0.43100
H1356       H  0.70718600  0.34429064  0.56292596     0.43100
C1357       C  0.76759343  0.03644509  0.60919791    -0.06000
C1358       C  0.78144447  0.04806137  0.64082791    -0.33400
C1359       C  0.76350657  0.07207984  0.66128033     0.35900
C1360       C  0.73145300  0.08522652  0.64995677    -0.06300
C1361       C  0.71751713  0.07331400  0.61850224    -0.33300
C1362       C  0.73496590  0.04872923  0.59853871     0.35800
H1363       H  0.80584222  0.03782594  0.65014079     0.16100
O1364       O  0.77804059  0.08338422  0.69168897    -0.60800
H1365       H  0.69325235  0.08372649  0.60902395     0.16100
O1366       O  0.71986572  0.03684013  0.56862273    -0.60900
H1367       H  0.73054552  0.05054258  0.54974065     0.43100
H1368       H  0.79381850  0.10245550  0.68495573     0.43100
C1369       C  0.90956836  0.37993897  0.52270886    -0.06000
C1370       C  0.90534634  0.37041219  0.98843899    -0.33400
C1371       C  0.93115910  0.35145703  0.97172298     0.35900
C1372       C  0.96228204  0.34396727  0.98916737    -0.06300
C1373       C  0.96912218  0.36084668  0.52035563    -0.33300
C1374       C  0.94310984  0.38025769  0.53640634     0.35800
H1375       H  0.88142257  0.37569886  0.97472516     0.16100
O1376       O  0.92554937  0.34027860  0.93846780    -0.60800
H1377       H  0.99498236  0.36195451  0.53113202     0.16100
O1378       O  0.95053106  0.39860382  0.56588488    -0.60900
H1379       H  0.95730310  0.42199546  0.55770946     0.43100
H1380       H  0.92986164  0.36075587  0.92357286     0.43100
C1381       C  0.65974593  0.36843905  0.97908642    -0.06000
C1382       C  0.65380994  0.38291120  0.51035187    -0.33400
C1383       C  0.67979314  0.40193214  0.52697859     0.35900
C1384       C  0.71296045  0.40348099  0.51251913    -0.06300
C1385       C  0.72066818  0.38114001  0.98558587    -0.33300
C1386       C  0.69408769  0.36250120  0.96946420     0.35800
H1387       H  0.62840268  0.38191703  0.52198822     0.16100
O1388       O  0.67266863  0.41810412  0.55771049    -0.60800
H1389       H  0.74706179  0.37593330  0.97798248     0.16100
O1390       O  0.70191316  0.33905404  0.94405554    -0.60900
H1391       H  0.70705932  0.31714082  0.95650605     0.43100
H1392       H  0.66674214  0.44226980  0.55131633     0.43100
O1393       O  0.88674312  0.93229696  0.04816802    -0.82300
C1394       C  0.74637661  0.91861220  0.03151235     0.97100
O1395       O  0.77323558  0.92519081  0.01472827    -0.71400
O1396       O  0.83185865  0.94076038  0.49378583    -0.75000
Al1397     Al  0.81496741  0.90620471  0.02983646     1.49000
C1398       C  0.83773322  0.97326476  0.49552491     0.92300
O1399       O  0.82214670  0.50210187  0.09091380    -0.81200
O1400       O  0.81388329  0.95062624  0.13510161    -0.74800
Al1401     Al  0.85266081  0.96350882  0.06959173     1.90100
O1402       O  0.77228620  0.98064026  0.08514857    -0.73900
O1403       O  0.79474215  0.88974514  0.10939629    -0.73700
O1404       O  0.74726926  0.91957839  0.06449476    -0.79400
O1405       O  0.79201977  0.86867547  0.05649755    -0.77600
O1406       O  0.81742474  0.93500237  0.06500973    -1.13700
O1407       O  0.85640533  0.88471406  0.04140350    -0.72900
C1408       C  0.88464730  0.90050216  0.03964095     0.97800
C1409       C  0.78940692  0.50610606  0.09311665     0.94200
Al1410     Al  0.78437624  0.93508282  0.09629036     1.55600
O1411       O  0.84376109  0.98531126  0.02765441    -0.77500
C1412       C  0.78875594  0.86489503  0.08921726     0.98400
C1413       C  0.84666621  0.95167580  0.13774476     0.93300
O1414       O  0.86482237  0.94376870  0.11212678    -0.82800
O1415       O  0.87228063  0.55880636  0.29077156    -0.82300
C1416       C  0.51318039  0.57997555  0.28444122     0.97100
O1417       O  0.98752027  0.57009819  0.26523808    -0.71400
O1418       O  0.92409880  0.55517223  0.24280886    -0.75000
Al1419     Al  0.94390549  0.58777434  0.27668710     1.49000
C1420       C  0.91736937  0.52297316  0.24530596     0.92300
O1421       O  0.93074955  0.99775743  0.34128739    -0.81200
O1422       O  0.93963479  0.54576587  0.38296783    -0.74800
Al1423     Al  0.90654451  0.52916706  0.31459398     1.90100
O1424       O  0.98620450  0.51704430  0.33733424    -0.73900
O1425       O  0.95739842  0.60718608  0.35695442    -0.72900
O1426       O  0.50939024  0.57993315  0.31724242    -0.79400
O1427       O  0.96364895  0.62671346  0.30378864    -0.77600
O1428       O  0.94028467  0.55967304  0.31245550    -1.13700
O1429       O  0.90118593  0.60751329  0.28499459    -0.72900
C1430       C  0.87340004  0.59088179  0.28286238     0.97800
C1431       C  0.96341744  0.99358286  0.34435833     0.94200
Al1432     Al  0.97098450  0.56203673  0.34613262     1.55600
O1433       O  0.92028192  0.50786020  0.27387594    -0.77500
C1434       C  0.96433383  0.63161544  0.33650984     0.98400
C1435       C  0.90690408  0.54233681  0.38329215     0.93300
O1436       O  0.88983616  0.54741168  0.35603336    -0.82800
O1437       O  0.68545936  0.75496311  0.16589114    -0.82300
C1438       C  0.71714901  0.61678387  0.16262160     0.97100
O1439       O  0.71063846  0.64216998  0.14309987    -0.71400
O1440       O  0.69244121  0.70514493  0.11981981    -0.75000
Al1441     Al  0.72242649  0.68710010  0.15763311     1.49000
C1442       C  0.65969713  0.70881921  0.11790604     0.92300
O1443       O  0.62119455  0.68816942  0.20862901    -0.81200
O1444       O  0.66961599  0.68779240  0.25821010    -0.74800
Al1445     Al  0.65667899  0.71838631  0.18731710     1.90100
O1446       O  0.64808206  0.63807708  0.21027296    -0.73900
O1447       O  0.73387261  0.67250082  0.23919783    -0.73700
O1448       O  0.71280640  0.61943946  0.19530396    -0.79400
O1449       O  0.75902417  0.66946357  0.18853808    -0.77600
O1450       O  0.68994174  0.68726454  0.18938153    -1.13700
O1451       O  0.73696075  0.73157496  0.17013876    -0.72900
C1452       C  0.71819857  0.75714769  0.16303567     0.97800
C1453       C  0.62103336  0.65557620  0.21415625     0.94200
Al1454     Al  0.69097183  0.65664914  0.22331861     1.55600
O1455       O  0.64146269  0.70251384  0.14406812    -0.77500
C1456       C  0.76026643  0.66642870  0.22138925     0.98400
C1457       C  0.66419621  0.72043204  0.25734942     0.93300
O1458       O  0.66921529  0.73710952  0.22991113    -0.82800
O1459       O  0.99221941  0.82978165  0.43418429    -0.82300
C1460       C  0.62853905  0.84305595  0.46682205     0.97100
O1461       O  0.60060530  0.85942611  0.46480490    -0.71400
O1462       O  0.53740623  0.87788291  0.44683549    -0.75000
Al1463     Al  0.55816694  0.83897877  0.47364509     1.49000
C1464       C  0.53577480  0.88262390  0.41408401     0.92300
O1465       O  0.56150533  0.79743168  0.36696043    -0.81200
O1466       O  0.56726956  0.74537354  0.41061597    -0.74800
Al1467     Al  0.53028118  0.81340476  0.40447378     1.90100
O1468       O  0.61116576  0.80070666  0.39380444    -0.73900
O1469       O  0.58301697  0.75903847  0.47581676    -0.73700
O1470       O  0.62981310  0.81104067  0.45866103    -0.79400
O1471       O  0.58710354  0.81384450  0.00455842    -0.77600
O1472       O  0.56141101  0.81107321  0.43783739    -1.13700
O1473       O  0.51510212  0.82059868  0.48558030    -0.72900
C1474       C  0.98986832  0.83101310  0.46714330     0.97800
C1475       C  0.59433311  0.79457462  0.36673110     0.94200
Al1476     Al  0.59543850  0.78114691  0.43495345     1.55600
O1477       O  0.54370780  0.85851894  0.39375534    -0.77500
C1478       C  0.59486763  0.78178230  0.00324555     0.98400
C1479       C  0.53454360  0.74313251  0.40635290     0.93300
O1480       O  0.51523772  0.76835846  0.41324871    -0.82800
C1481       C  0.61091673  0.76355377  0.03298218    -0.06000
C1482       C  0.64147590  0.74458732  0.02746390    -0.33400
C1483       C  0.65777151  0.72654987  0.05457628     0.35900
C1484       C  0.64271214  0.72584391  0.08762698    -0.06300
C1485       C  0.61199885  0.74489929  0.09299867    -0.33300
C1486       C  0.59644735  0.76396854  0.06616622     0.35800
H1487       H  0.65318456  0.74433343  0.00202575     0.16100
O1488       O  0.68808135  0.70937578  0.04831070    -0.60800
H1489       H  0.60035166  0.74580663  0.11843364     0.16100
O1490       O  0.56708853  0.78268327  0.07263490    -0.60900
H1491       H  0.54771222  0.76759617  0.06512890     0.43100
H1492       H  0.70648943  0.72697754  0.05154077     0.43100
C1493       C  0.64728345  0.73932889  0.28599280    -0.06000
C1494       C  0.62232988  0.76471255  0.27751423    -0.33400
C1495       C  0.60494469  0.78328122  0.30323976     0.35900
C1496       C  0.61293676  0.77732529  0.33812966    -0.06300
C1497       C  0.63812596  0.75217425  0.34662302    -0.33300
C1498       C  0.65470879  0.73279767  0.32092546     0.35800
H1499       H  0.61575217  0.76975864  0.25067186     0.16100
O1500       O  0.58020188  0.80698895  0.29399968    -0.60800
H1501       H  0.64429897  0.74672347  0.37347741     0.16100
O1502       O  0.67872260  0.70835626  0.33019896    -0.60900
H1503       H  0.66525550  0.68695007  0.33457926     0.43100
H1504       H  0.59247429  0.82951905  0.29293631     0.43100
C1505       C  0.78998966  0.64965225  0.23868636    -0.06000
C1506       C  0.78358446  0.62640467  0.26622497    -0.33400
C1507       C  0.81006132  0.60589777  0.28022535     0.35900
C1508       C  0.84374475  0.60945758  0.26764835    -0.06300
C1509       C  0.85017962  0.63283978  0.24034663    -0.33300
C1510       C  0.82362454  0.65259823  0.22571480     0.35800
H1511       H  0.75763169  0.62307588  0.27607185     0.16100
O1512       O  0.80296140  0.58334546  0.30673311    -0.60800
H1513       H  0.87601304  0.63552381  0.22997537     0.16100
O1514       O  0.83068363  0.67407909  0.19832519    -0.60900
H1515       H  0.83765506  0.69640975  0.20891455     0.43100
H1516       H  0.79477137  0.56186318  0.29526201     0.43100
C1517       C  0.54377956  0.59616865  0.26749651    -0.06000
C1518       C  0.54786025  0.59291718  0.23134323    -0.33400
C1519       C  0.57188737  0.61322197  0.21325392     0.35900
C1520       C  0.59166930  0.63806262  0.23092926    -0.06300
C1521       C  0.58841841  0.64083519  0.26702328    -0.33300
C1522       C  0.56525202  0.61977527  0.28537457     0.35800
H1523       H  0.53192039  0.57492663  0.21685864     0.16100
O1524       O  0.57610149  0.60836956  0.17836081    -0.60800
H1525       H  0.60473826  0.65873814  0.28122896     0.16100
O1526       O  0.56314912  0.62338281  0.32061456    -0.60900
H1527       H  0.57940301  0.60598812  0.33024398     0.43100
H1528       H  0.55922141  0.62417832  0.16717753     0.43100
C1529       C  0.51804748  0.71337663  0.38907335    -0.06000
C1530       C  0.48759815  0.69971669  0.40311343    -0.33400
C1531       C  0.46810865  0.67515428  0.38492867     0.35900
C1532       C  0.97882982  0.66342229  0.35200143    -0.06300
C1533       C  0.00926159  0.67740792  0.33827406    -0.33300
C1534       C  0.02904243  0.70125585  0.35728960     0.35800
H1535       H  0.47885746  0.70821046  0.42832902     0.16100
O1536       O  0.43874952  0.66190654  0.39971219    -0.60800
H1537       H  0.01846259  0.66884607  0.31328872     0.16100
O1538       O  0.05874234  0.71426894  0.34313479    -0.60900
H1539       H  0.05088764  0.73049004  0.32480194     0.43100
H1540       H  0.44693150  0.64469342  0.41699078     0.43100
C1541       C  0.97886239  0.96221886  0.35995153    -0.06000
C1542       C  0.46997106  0.95215676  0.39345923    -0.33400
C1543       C  0.49015480  0.92901890  0.41315882     0.35900
C1544       C  0.51940978  0.91343249  0.39822663    -0.06300
C1545       C  0.98987887  0.92708129  0.41141685    -0.33300
C1546       C  0.96932916  0.95114588  0.39337935     0.35800
H1547       H  0.44779874  0.96432327  0.40521008     0.16100
O1548       O  0.48143206  0.92192959  0.44690035    -0.60800
H1549       H  0.98183450  0.91845500  0.43685691     0.16100
O1550       O  0.94106792  0.96505383  0.40940219    -0.60900
H1551       H  0.92271863  0.94725110  0.40715466     0.43100
H1552       H  0.45629322  0.91715146  0.44695635     0.43100
C1553       C  0.90108155  0.50334995  0.21683886    -0.06000
C1554       C  0.86426093  0.99182240  0.22570052    -0.33400
C1555       C  0.84797930  0.97253517  0.19967573     0.35900
C1556       C  0.86399297  0.96884671  0.16734694    -0.06300
C1557       C  0.88910340  0.49325157  0.15626710    -0.33300
C1558       C  0.90713623  0.51121090  0.18199540     0.35800
H1559       H  0.85190971  0.99392028  0.25074545     0.16100
O1560       O  0.81673493  0.95717093  0.20624909    -0.60800
H1561       H  0.89421368  0.49968542  0.12945661     0.16100
O1562       O  0.93103529  0.53576302  0.17279841    -0.60900
H1563       H  0.91759503  0.55732068  0.16911043     0.43100
H1564       H  0.79928359  0.97548832  0.20190035     0.43100
C1565       C  0.88889509  0.52637303  0.41308583    -0.06000
C1566       C  0.86137469  0.50321461  0.40649875    -0.33400
C1567       C  0.85151337  0.98265846  0.43218662     0.35900
C1568       C  0.85415133  0.99292604  0.46691531    -0.06300
C1569       C  0.88447696  0.51244987  0.47414017    -0.33300
C1570       C  0.90051542  0.53066472  0.44725185     0.35800
H1571       H  0.85246996  0.49885900  0.38022192     0.16100
O1572       O  0.83213185  0.95438243  0.42293358    -0.60800
H1573       H  0.90191651  0.50713765  0.00164375     0.16100
O1574       O  0.92774172  0.55220002  0.45462526    -0.60900
H1575       H  0.91726377  0.57529532  0.45845524     0.43100
H1576       H  0.84868178  0.93479437  0.42230427     0.43100
C1577       C  0.73499394  0.78665916  0.14571430    -0.06000
C1578       C  0.72279272  0.79713847  0.11304042    -0.33400
C1579       C  0.74192672  0.82023137  0.09255382     0.35900
C1580       C  0.77344070  0.83367090  0.10497936    -0.06300
C1581       C  0.78575793  0.82280597  0.13750617    -0.33300
C1582       C  0.76721713  0.79895571  0.15744221     0.35800
H1583       H  0.69886248  0.78656942  0.10289431     0.16100
O1584       O  0.72911926  0.83032338  0.06094716    -0.60800
H1585       H  0.80959205  0.83344512  0.14780825     0.16100
O1586       O  0.78039265  0.78837462  0.18877054    -0.60900
H1587       H  0.79754914  0.77021072  0.18315464     0.43100
H1588       H  0.71013526  0.84664950  0.06624114     0.43100
C1589       C  0.77340206  0.53713515  0.10883348    -0.06000
C1590       C  0.78488412  0.54874918  0.14132556    -0.33400
C1591       C  0.76557394  0.57306196  0.16029652     0.35900
C1592       C  0.73434129  0.58636236  0.14671713    -0.06300
C1593       C  0.72322686  0.57498528  0.11400682    -0.33300
C1594       C  0.74206881  0.55027599  0.09545389     0.35800
H1595       H  0.80822879  0.53802533  0.15263894     0.16100
O1596       O  0.77773358  0.58408362  0.19179225    -0.60800
H1597       H  0.69975660  0.58542346  0.10271931     0.16100
O1598       O  0.72919748  0.53854110  0.06446533    -0.60900
H1599       H  0.74227283  0.55129017  0.04646703     0.43100
H1600       H  0.79945772  0.59665668  0.18665828     0.43100
C1601       C  0.91318939  0.88233494  0.02241161    -0.06000
C1602       C  0.90628673  0.88060969  0.48379009    -0.33400
C1603       C  0.93106190  0.86035640  0.46675547     0.35900
C1604       C  0.96029743  0.84825324  0.48494890    -0.06300
C1605       C  0.97120687  0.85933735  0.02068563    -0.33300
C1606       C  0.94563878  0.87823195  0.03787192     0.35800
H1607       H  0.88354960  0.88896476  0.46958632     0.16100
O1608       O  0.92604356  0.85207509  0.43257648    -0.60800
H1609       H  0.99620702  0.85680871  0.03314283     0.16100
O1610       O  0.95226843  0.89160243  0.07009936    -0.60900
H1611       H  0.96251983  0.91475212  0.06579285     0.43100
H1612       H  0.93342712  0.87285102  0.41939537     0.43100
C1613       C  0.65811546  0.86167839  0.48242692    -0.06000
C1614       C  0.65687275  0.88503400  0.00908780    -0.33400
C1615       C  0.68321726  0.90276041  0.02655135     0.35900
C1616       C  0.71644576  0.90421305  0.01221203    -0.06300
C1617       C  0.71848286  0.87812426  0.48510846    -0.33300
C1618       C  0.69195533  0.85826926  0.47021301     0.35800
H1619       H  0.63144983  0.88392727  0.02067727     0.16100
O1620       O  0.67637460  0.91770627  0.05795984    -0.60800
H1621       H  0.74452197  0.87491619  0.47547745     0.16100
O1622       O  0.69917911  0.83653350  0.44316143    -0.60900
H1623       H  0.70678093  0.81454055  0.45410972     0.43100
H1624       H  0.67095117  0.94224663  0.05262546     0.43100
O1625       O  0.88125344  0.93925836  0.54349920    -0.82300
C1626       C  0.74167592  0.91726494  0.53081050     0.97100
O1627       O  0.76778417  0.92452173  0.51298671    -0.71400
O1628       O  0.83756782  0.93776033  0.99686244    -0.75000
Al1629     Al  0.81099027  0.90846411  0.52778163     1.49000
C1630       C  0.84566161  0.96967369  0.99927630     0.92300
O1631       O  0.82231303  0.50186433  0.58943712    -0.81200
O1632       O  0.80995926  0.95381688  0.63272665    -0.74800
Al1633     Al  0.84565876  0.96889057  0.56557589     1.90100
O1634       O  0.76502255  0.98144049  0.58396954    -0.73900
O1635       O  0.79282909  0.89147074  0.60775376    -0.73700
O1636       O  0.74323719  0.91920977  0.56373624    -0.79400
O1637       O  0.79002878  0.87023336  0.55502328    -0.77600
O1638       O  0.81231233  0.93794366  0.56265306    -1.13700
O1639       O  0.85388178  0.88957613  0.53931090    -0.72900
C1640       C  0.88106409  0.90701202  0.53623325     0.97800
C1641       C  0.78959034  0.50584885  0.59202884     0.94200
Al1642     Al  0.78008691  0.93651002  0.59474379     1.55600
O1643       O  0.83326932  0.98903937  0.52352543    -0.77500
C1644       C  0.78653306  0.86652582  0.58770860     0.98400
C1645       C  0.84262980  0.95777280  0.63453542     0.93300
O1646       O  0.86080121  0.95158288  0.60835711    -0.82800
O1647       O  0.86903638  0.56788156  0.79778476    -0.82300
C1648       C  0.50967643  0.57980052  0.77954261     0.97100
O1649       O  0.98216612  0.57426796  0.76391418    -0.71400
O1650       O  0.91690834  0.56287625  0.74588330    -0.75000
Al1651     Al  0.94078574  0.59325962  0.77973748     1.49000
C1652       C  0.90840822  0.53095899  0.74761091     0.92300
O1653       O  0.92942310  0.99562809  0.83846662    -0.81200
O1654       O  0.94248787  0.54611172  0.88432038    -0.74800
Al1655     Al  0.90286256  0.53547830  0.81827459     1.90100
O1656       O  0.98300443  0.51639556  0.83331379    -0.73900
O1657       O  0.96313994  0.60747207  0.85966940    -0.72900
O1658       O  0.50958904  0.57733521  0.81242246    -0.79400
O1659       O  0.96492605  0.62954901  0.80703235    -0.77600
O1660       O  0.93848673  0.56355742  0.81432413    -1.13700
O1661       O  0.89985114  0.61514500  0.79230131    -0.72900
C1662       C  0.87123895  0.59998950  0.79032098     0.97800
C1663       C  0.96212788  0.99095510  0.83949825     0.94200
Al1664     Al  0.97197916  0.56199682  0.84551513     1.55600
O1665       O  0.91094381  0.51472067  0.77570753    -0.77500
C1666       C  0.96936095  0.63251052  0.83970543     0.98400
C1667       C  0.90967849  0.54559587  0.88698511     0.93300
O1668       O  0.89141319  0.55404476  0.86139391    -0.82800
O1669       O  0.68146553  0.75229560  0.65882845    -0.82300
C1670       C  0.71748134  0.61574414  0.66265070     0.97100
O1671       O  0.71015993  0.64017122  0.64230908    -0.71400
O1672       O  0.69021241  0.70086626  0.61570105    -0.75000
Al1673     Al  0.72097998  0.68575013  0.65442669     1.49000
C1674       C  0.65724505  0.70180637  0.61419876     0.92300
O1675       O  0.61952405  0.68512381  0.70485806    -0.81200
O1676       O  0.66852844  0.69029000  0.75465257    -0.74800
Al1677     Al  0.65383146  0.71552620  0.68221268     1.90100
O1678       O  0.64916058  0.63697339  0.71010769    -0.73900
O1679       O  0.73280696  0.67663369  0.73637423    -0.73700
O1680       O  0.71393557  0.61980360  0.69534883    -0.79400
O1681       O  0.75852342  0.67062013  0.68631764    -0.77600
O1682       O  0.68859627  0.68649930  0.68632519    -1.13700
O1683       O  0.73397354  0.73118882  0.66445782    -0.72900
C1684       C  0.71423637  0.75585890  0.65669162     0.97800
C1685       C  0.62108527  0.65301026  0.71247485     0.94200
Al1686     Al  0.69089096  0.65795768  0.72168756     1.55600
O1687       O  0.64013401  0.69507756  0.64081202    -0.77500
C1688       C  0.75943998  0.66981918  0.71936241     0.98400
C1689       C  0.66157238  0.72258053  0.75212392     0.93300
O1690       O  0.66450163  0.73782137  0.72353535    -0.82800
O1691       O  0.99612582  0.82933081  0.93535928    -0.82300
C1692       C  0.63415726  0.84965499  0.96087803     0.97100
O1693       O  0.60604385  0.86568626  0.95867890    -0.71400
O1694       O  0.54132609  0.88191542  0.94323965    -0.75000
Al1695     Al  0.56442216  0.84472537  0.97053065     1.49000
C1696       C  0.53786239  0.88537239  0.91049186     0.92300
O1697       O  0.56331131  0.79912809  0.86556977    -0.81200
O1698       O  0.57326534  0.74854410  0.91095772    -0.74800
Al1699     Al  0.53364076  0.81524612  0.90401317     1.90100
O1700       O  0.61425150  0.80445483  0.88964697    -0.73900
O1701       O  0.59224153  0.76539074  0.97524493    -0.73700
O1702       O  0.63580435  0.81756317  0.95337973    -0.79400
O1703       O  0.57876793  0.80623413  0.50713355    -0.77600
O1704       O  0.56656291  0.81525715  0.93585809    -1.13700
O1705       O  0.52258408  0.82615764  0.98556933    -0.72900
C1706       C  0.99500783  0.83023543  0.96836200     0.97800
C1707       C  0.59610831  0.79746749  0.86359949     0.94200
Al1708     Al  0.60137433  0.78612667  0.93248855     1.55600
O1709       O  0.54445381  0.86053551  0.89058574    -0.77500
C1710       C  0.58584547  0.77413050  0.50439441     0.98400
C1711       C  0.54051341  0.74499072  0.90799496     0.93300
O1712       O  0.52078713  0.76987058  0.91516639    -0.82800
C1713       C  0.60281430  0.75475231  0.53249864    -0.06000
C1714       C  0.63502397  0.73927795  0.52575955    -0.33400
C1715       C  0.65289506  0.72095544  0.55155473     0.35900
C1716       C  0.63804498  0.71687578  0.58439563    -0.06300
C1717       C  0.60501590  0.73136685  0.59049876    -0.33300
C1718       C  0.58765199  0.75043181  0.56497120     0.35800
H1719       H  0.64680156  0.74218396  0.50050956     0.16100
O1720       O  0.68462152  0.70705353  0.54430979    -0.60800
H1721       H  0.59295351  0.72905499  0.61565330     0.16100
O1722       O  0.55604829  0.76472694  0.57204950    -0.60900
H1723       H  0.53887780  0.74756073  0.56365027     0.43100
H1724       H  0.70127295  0.72630242  0.54761221     0.43100
C1725       C  0.64626231  0.74257658  0.78099780    -0.06000
C1726       C  0.62283763  0.76966261  0.77324479    -0.33400
C1727       C  0.60620926  0.78817579  0.79958980     0.35900
C1728       C  0.61358044  0.78041055  0.83428464    -0.06300
C1729       C  0.63759292  0.75401786  0.84198694    -0.33300
C1730       C  0.65323432  0.73469321  0.81576600     0.35800
H1731       H  0.61669146  0.77597912  0.74656842     0.16100
O1732       O  0.58300616  0.81368782  0.79115525    -0.60800
H1733       H  0.64333616  0.74739173  0.86867259     0.16100
O1734       O  0.67570235  0.70862306  0.82444523    -0.60900
H1735       H  0.66094581  0.68798944  0.82834325     0.43100
H1736       H  0.59655058  0.83550650  0.79136638     0.43100
C1737       C  0.78848701  0.65412066  0.73860853    -0.06000
C1738       C  0.78109784  0.62674813  0.76163266    -0.33400
C1739       C  0.80748221  0.60905879  0.77913324     0.35900
C1740       C  0.84192858  0.61954276  0.77493334    -0.06300
C1741       C  0.84910711  0.64789970  0.75281296    -0.33300
C1742       C  0.82272619  0.66483353  0.73444336     0.35800
H1743       H  0.75469329  0.61812831  0.76510479     0.16100
O1744       O  0.79925635  0.58178237  0.80035507    -0.60800
H1745       H  0.87547873  0.65631647  0.74874800     0.16100
O1746       O  0.83067763  0.69163808  0.71253981    -0.60900
H1747       H  0.82862333  0.71286379  0.72681739     0.43100
H1748       H  0.79742111  0.56143756  0.78479117     0.43100
C1749       C  0.53878308  0.59619914  0.76102516    -0.06000
C1750       C  0.53137127  0.61950821  0.73374103    -0.33400
C1751       C  0.55756713  0.63894537  0.71796943     0.35900
C1752       C  0.59195076  0.63420554  0.72843029    -0.06300
C1753       C  0.59935072  0.61068745  0.75546204    -0.33300
C1754       C  0.57309557  0.59215166  0.77198609     0.35800
H1755       H  0.50493692  0.62364652  0.72538845     0.16100
O1756       O  0.54938767  0.66174385  0.69192653    -0.60800
H1757       H  0.62570620  0.60714864  0.76435309     0.16100
O1758       O  0.58125407  0.57041961  0.79892589    -0.60900
H1759       H  0.58400715  0.54724074  0.78827095     0.43100
H1760       H  0.54365821  0.68374180  0.70380506     0.43100
C1761       C  0.52429435  0.71399193  0.89190111    -0.06000
C1762       C  0.48970450  0.70614587  0.89989429    -0.33400
C1763       C  0.47135407  0.68087479  0.88142026     0.35900
C1764       C  0.98632822  0.66302519  0.85515585    -0.06300
C1765       C  0.01986962  0.67197462  0.84465307    -0.33300
C1766       C  0.03940636  0.69644299  0.86329290     0.35800
H1767       H  0.47669055  0.71988606  0.92050337     0.16100
O1768       O  0.43793889  0.67343233  0.89047508    -0.60800
H1769       H  0.03134008  0.65921044  0.82253049     0.16100
O1770       O  0.07187445  0.70495677  0.85206558    -0.60900
H1771       H  0.06818587  0.72030734  0.83177370     0.43100
H1772       H  0.43978943  0.65602360  0.90931132     0.43100
C1773       C  0.97837604  0.96023141  0.85576457    -0.06000
C1774       C  0.51528033  0.95405276  0.84481345    -0.33400
C1775       C  0.53499835  0.93091773  0.86462523     0.35900
C1776       C  0.52103554  0.91579978  0.89463460    -0.06300
C1777       C  0.98607546  0.92332314  0.90661457    -0.33300
C1778       C  0.96551428  0.94604064  0.88684627     0.35800
H1779       H  0.52700085  0.96619753  0.82242815     0.16100
O1780       O  0.56781378  0.92278420  0.85414313    -0.60800
H1781       H  0.97553781  0.91196977  0.92998699     0.16100
O1782       O  0.93373095  0.95555751  0.89908690    -0.60900
H1783       H  0.91734378  0.93839507  0.88927951     0.43100
H1784       H  0.58323825  0.93810151  0.86779641     0.43100
C1785       C  0.89189872  0.51236321  0.71842070    -0.06000
C1786       C  0.85986447  0.99568867  0.72397427    -0.33400
C1787       C  0.84403555  0.97675016  0.69731352     0.35900
C1788       C  0.85927959  0.97562889  0.66437998    -0.06300
C1789       C  0.88952814  0.49338801  0.65866334    -0.33300
C1790       C  0.90444216  0.51415537  0.68450286     0.35800
H1791       H  0.84824319  0.99546280  0.74945742     0.16100
O1792       O  0.81414608  0.95891635  0.70397144    -0.60800
H1793       H  0.89979604  0.49505337  0.63266553     0.16100
O1794       O  0.93196155  0.53504621  0.67659794    -0.60900
H1795       H  0.92161244  0.55745820  0.66946882     0.43100
H1796       H  0.79533979  0.97607189  0.70073962     0.43100
C1797       C  0.89206249  0.52889753  0.91672693    -0.06000
C1798       C  0.86069857  0.51116971  0.91040784    -0.33400
C1799       C  0.84479530  0.99264031  0.93860155     0.35900
C1800       C  0.86155721  0.98856286  0.97046189    -0.06300
C1801       C  0.89026980  0.50815810  0.97608164    -0.33300
C1802       C  0.90693494  0.52700718  0.94992778     0.35800
H1803       H  0.84895162  0.51160259  0.88489741     0.16100
O1804       O  0.81284218  0.97831864  0.93295006    -0.60800
H1805       H  0.89392416  0.51612820  0.50033832     0.16100
O1806       O  0.93772866  0.54312718  0.95705047    -0.60900
H1807       H  0.93156705  0.56743149  0.96252740     0.43100
H1808       H  0.81746094  0.95483508  0.92373211     0.43100
C1809       C  0.73054022  0.78641924  0.64060324    -0.06000
C1810       C  0.72118551  0.79579226  0.60670635    -0.33400
C1811       C  0.74090003  0.81993244  0.58791702     0.35900
C1812       C  0.77024036  0.83542860  0.60321128    -0.06300
C1813       C  0.77956163  0.82578328  0.63709605    -0.33300
C1814       C  0.76048793  0.80100760  0.65539493     0.35800
H1815       H  0.69918246  0.78352103  0.59432049     0.16100
O1816       O  0.73090965  0.82869010  0.55493256    -0.60800
H1817       H  0.80162698  0.83780097  0.64960213     0.16100
O1818       O  0.77101531  0.79151446  0.68803748    -0.60900
H1819       H  0.78942172  0.77406670  0.68446830     0.43100
H1820       H  0.70879504  0.84132736  0.55758374     0.43100
C1821       C  0.77396086  0.53663567  0.60848178    -0.06000
C1822       C  0.78391732  0.54605649  0.64225282    -0.33400
C1823       C  0.76435256  0.57000399  0.66147656     0.35900
C1824       C  0.73431397  0.58494360  0.64696904    -0.06300
C1825       C  0.72461784  0.57538142  0.61315198    -0.33300
C1826       C  0.74388338  0.55138909  0.59418924     0.35800
H1827       H  0.80625770  0.53396905  0.65420332     0.16100
O1828       O  0.77521610  0.57912596  0.69404282    -0.60800
H1829       H  0.70211302  0.58703992  0.60109605     0.16100
O1830       O  0.73273957  0.54204621  0.56174828    -0.60900
H1831       H  0.74673616  0.55612569  0.54551745     0.43100
H1832       H  0.79469598  0.59539318  0.69036908     0.43100
C1833       C  0.91026585  0.88981668  0.51882997    -0.06000
C1834       C  0.90679746  0.86752296  0.98969564    -0.33400
C1835       C  0.93267768  0.84962172  0.97191892     0.35900
C1836       C  0.96530055  0.84521272  0.98736459    -0.06300
C1837       C  0.96368469  0.85704049  0.52039887    -0.33300
C1838       C  0.93909254  0.87769910  0.53718292     0.35800
H1839       H  0.88167132  0.87045015  0.97754242     0.16100
O1840       O  0.92567348  0.83633298  0.93972911    -0.60800
H1841       H  0.98592217  0.84846496  0.53520928     0.16100
O1842       O  0.94285252  0.88480616  0.57177123    -0.60900
H1843       H  0.95487319  0.90748024  0.57271070     0.43100
H1844       H  0.92892730  0.85595432  0.92346203     0.43100
C1845       C  0.66314093  0.86801018  0.97751428    -0.06000
C1846       C  0.65157108  0.88453178  0.51010124    -0.33400
C1847       C  0.67819006  0.90358120  0.52564990     0.35900
C1848       C  0.71199686  0.90063802  0.51314128    -0.06300
C1849       C  0.72235860  0.88791266  0.97999339    -0.33300
C1850       C  0.69612613  0.86950210  0.96296069     0.35800
H1851       H  0.62561162  0.88726398  0.52011328     0.16100
O1852       O  0.67090808  0.92467177  0.55319832    -0.60800
H1853       H  0.74780615  0.88830098  0.96845003     0.16100
O1854       O  0.70271977  0.85394914  0.93178917    -0.60900
H1855       H  0.71178292  0.83065558  0.93775026     0.43100
H1856       H  0.66811425  0.94815555  0.54312402     0.43100
loop_ 
_geom_bond_atom_site_label_1 
_geom_bond_atom_site_label_2 
_geom_bond_distance 
_geom_bond_site_symmetry_2 
_ccdc_geom_bond_type 
O1           C16   1.274       .  A
O1           Al9   1.975       .  S
C2           O12   1.276       .  A
C2            O3   1.255       .  A
C2          C224   1.475       .  S
O3           Al5   1.862       .  S
O4            C6   1.275       .  A
O4         Al237   1.976       .  S
Al5          O13   1.995       .  S
Al5          O15   1.866       .  S
Al5         O236   1.982   1_554  S
Al5          O14   1.759       .  S
C6          O251   1.256       .  A
C6          C176   1.483       .  S
O7           C17   1.280       .  A
O7         Al473   1.998   1_545  S
O8           C21   1.276       .  A
O8          Al18   1.991       .  S
Al9          O22   1.857       .  S
Al9          O19   1.859       .  S
Al9         O471   1.998       .  S
Al9          O14   1.760       .  S
O10         C481   1.256       .  A
O10         Al18   1.867       .  S
O11          C20   1.258       .  A
O11         Al18   1.870       .  S
O12         Al18   1.976       .  S
O13          C20   1.279       .  A
O14         Al18   1.763       .  S
O15          C16   1.255       .  A
C16         C209   1.470       .  S
C17         O474   1.260   1_545  A
C17         C197   1.487       .  S
O19         C238   1.256   1_554  A
C20         C188   1.481       .  S
C21          O22   1.252       .  A
C21         C164   1.474       .  S
O23          C38   1.274       .  A
O23         Al31   1.972       .  S
C24          O34   1.275       .  A
C24         O953   1.256   1_455  A
C24         C125   1.484       .  S
O25         C952   1.254       .  A
O25         Al27   1.868       .  S
O26          C28   1.273       .  A
O26         Al27   1.961       .  S
Al27         O35   1.972       .  S
Al27         O37   1.855       .  S
Al27         O36   1.758       .  S
C28          O41   1.255       .  A
C28         C161   1.466       .  S
O29          C39   1.277       .  A
O29        Al495   1.976       .  S
O30          C43   1.274       .  A
O30         Al40   1.981       .  S
Al31         O44   1.876       .  S
Al31         O41   1.855       .  S
Al31        O493   1.988   1_545  S
Al31         O36   1.759       .  S
O32         C503   1.259   1_545  A
O32         Al40   1.865       .  S
O33          C42   1.258       .  A
O33         Al40   1.859       .  S
O34        Al968   1.984   1_455  S
O35          C42   1.276       .  A
O36         Al40   1.765       .  S
O37          C38   1.252       .  A
C38         C116   1.479       .  S
C39         O496   1.259       .  A
C39         C149   1.471       .  S
Al40        O962   1.981       .  S
C42         C140   1.461       .  S
C43          O44   1.256       .  A
C43         C173   1.490       .  S
O45          C60   1.279       .  A
O45         Al53   1.996       .  S
C46          O56   1.281       .  A
C46          O47   1.260       .  A
C46         C200   1.483       .  S
O47         Al49   1.873       .  S
O48          C50   1.276       .  A
O48         Al49   1.984       .  S
Al49         O57   1.979       .  S
Al49         O59   1.869       .  S
Al49         O58   1.765       .  S
C50          O63   1.257       .  A
C50          C92   1.494       .  S
O51          C61   1.276       .  A
O51         Al53   1.979       .  S
O52          C65   1.278       .  A
O52         Al62   1.985       .  S
Al53         O66   1.861       .  S
Al53         O63   1.875       .  S
Al53         O58   1.762       .  S
O54          C61   1.256       .  A
O54         Al62   1.863       .  S
O55          C64   1.254       .  A
O55         Al62   1.867       .  S
O56         Al62   2.002       .  S
O57          C64   1.274       .  A
O58         Al62   1.762       .  S
O59          C60   1.259       .  A
C60         C185   1.483       .  S
C61         C128   1.480       .  S
C64         C113   1.478       .  S
C65          O66   1.256       .  A
C65         C101   1.487       .  S
O67          C82   1.276       .  A
O67       Al1003   1.984       .  S
C68          O78   1.275       .  A
C68          O69   1.253       .  A
C68         C221   1.475       .  S
O69         Al71   1.852       .  S
O70          C72   1.277       .  A
O70         Al71   1.977       .  S
Al71         O81   1.872       .  S
Al71        O311   1.964       .  S
Al71         O80   1.760       .  S
C72          O85   1.258       .  A
C72         C152   1.462       .  S
O73          C83   1.274       .  A
O73         Al75   1.989       .  S
O74          C87   1.280       .  A
O74         Al84   1.994       .  S
Al75         O88   1.856       .  S
Al75         O85   1.857       .  S
Al75        O995   1.984   1_455  S
Al75         O80   1.763       .  S
O76          C83   1.253       .  A
O76         Al84   1.870       .  S
O77         C318   1.254       .  A
O77         Al84   1.855       .  S
O78         Al84   1.974       .  S
O79          C86   1.276       .  A
O79        Al303   1.983   1_554  S
O80         Al84   1.760       .  S
O81        C1010   1.255   1_455  A
C82        O1009   1.256       .  A
C82         C212   1.492       .  S
C83         C104   1.481       .  S
C86         O309   1.255   1_554  A
C86          C89   1.476       .  S
C87          O88   1.258       .  A
C87         C137   1.476       .  S
C89          C90   1.407       .  A
C89          C94   1.400       .  A
C90          C91   1.404       .  A
C90          H95   1.084       .  S
C91          C92   1.409       .  A
C91          O96   1.372       .  S
C92          C93   1.416       .  A
C93          C94   1.404       .  A
C93          H97   1.083       .  S
C94          O98   1.371       .  S
O96         H100   0.991       .  S
O98          H99   0.992       .  S
C101        C102   1.415       .  A
C101        C106   1.402       .  A
C102        C103   1.404       .  A
C102        H107   1.083       .  S
C103        C104   1.400       .  A
C103        O108   1.371       .  S
C104        C105   1.412       .  A
C105        C106   1.402       .  A
C105        H109   1.083       .  S
C106        O110   1.371       .  S
O108        H112   0.992       .  S
O110        H111   0.992       .  S
C113        C114   1.412       .  A
C113        C118   1.401       .  A
C114        C115   1.401       .  A
C114        H119   1.083       .  S
C115        C116   1.401       .  A
C115        O120   1.371       .  S
C116        C117   1.413       .  A
C117        C118   1.400       .  A
C117        H121   1.084       .  S
C118        O122   1.371       .  S
O120        H124   0.992       .  S
O122        H123   0.992       .  S
C125        C126   1.413       .  A
C125        C130   1.403       .  A
C126        C127   1.402       .  A
C126        H131   1.083       .  S
C127        C128   1.400       .  A
C127        O132   1.371       .  S
C128        C129   1.412       .  A
C129        C130   1.403       .  A
C129        H133   1.084       .  S
C130        O134   1.371       .  S
O132        H136   0.992       .  S
O134        H135   0.992       .  S
C137        C138   1.406   1_455  A
C137       C1070   1.410       .  A
C138        C139   1.395       .  A
C138        H143   1.084       .  S
C139       C1068   1.404       .  A
C139        O144   1.372       .  S
C140        C141   1.400       .  A
C140       C1067   1.405       .  A
C141        C142   1.400       .  A
C141        H145   1.084       .  S
C142       C1065   1.409       .  A
C142        O146   1.370       .  S
O144        H148   0.992       .  S
O146        H147   0.992       .  S
C149        C154   1.409       .  A
C149       C1078   1.402       .  A
C150        C151   1.394       .  A
C150       C1077   1.403   1_455  A
C150        H155   1.084       .  S
C151        C152   1.406       .  A
C151        O156   1.372       .  S
C152       C1081   1.402   1_455  A
C153        C154   1.402       .  A
C153       C1080   1.403       .  A
C153        H157   1.084       .  S
C154        O158   1.371       .  S
O156        H160   0.991       .  S
O158        H159   0.991       .  S
C161        C166   1.398       .  A
C161        C626   1.406   1_545  A
C162        C163   1.402       .  A
C162        C625   1.415       .  A
C162        H167   1.083       .  S
C163        C164   1.398       .  A
C163        O168   1.371       .  S
C164        C629   1.411       .  A
C165        C166   1.399   1_565  A
C165        C628   1.414       .  A
C165        H169   1.083       .  S
C166        O170   1.372       .  S
O168        H172   0.992       .  S
O170        H171   0.992       .  S
C173        C174   1.413       .  A
C173        C178   1.410       .  A
C174        C639   1.401       .  A
C174        H179   1.083       .  S
C175        C176   1.403       .  A
C175        C638   1.404       .  A
C175        O180   1.371       .  S
C176        C641   1.411       .  A
C177        C178   1.402   1_565  A
C177        C640   1.405       .  A
C177        H413   1.084       .  S
C178        O182   1.371       .  S
O180        H184   0.992       .  S
H181        C409   1.084   1_565  S
O182        H183   0.992       .  S
C185        C186   1.406       .  A
C185        C190   1.410       .  A
C186        C187   1.409       .  A
C186        H191   1.084       .  S
C187        C188   1.411       .  A
C187        O192   1.372       .  S
C188        C189   1.403       .  A
C189        C190   1.400       .  A
C189        H193   1.084       .  S
C190        O194   1.373       .  S
O192        H196   0.991       .  S
O194        H195   0.991       .  S
C197        C198   1.406       .  A
C197        C202   1.412       .  A
C198        C199   1.410       .  A
C198        H203   1.084       .  S
C199        C200   1.412       .  A
C199        O204   1.371       .  S
C200        C201   1.402       .  A
C201        C202   1.400       .  A
C201        H205   1.084       .  S
C202        O206   1.372       .  S
O204        H208   0.992       .  S
O206        H207   0.992       .  S
C209        C214   1.398       .  A
C209        C442   1.406   1_554  A
C210        C211   1.404       .  A
C210        C441   1.409       .  A
C210        H215   1.084       .  S
C211        C212   1.406       .  A
C211        O216   1.372       .  S
C212        C445   1.416       .  A
C213        C214   1.402       .  A
C213        C444   1.416   1_554  A
C213        H217   1.083       .  S
C214        O218   1.371       .  S
O216        H220   0.992       .  S
O218        H219   0.992       .  S
C221        C226   1.399       .  A
C221        C454   1.411       .  A
C222        C223   1.399       .  A
C222        C453   1.411   1_554  A
C222        H227   1.084       .  S
C223        C224   1.400       .  A
C223        O228   1.371       .  S
C224        C457   1.412   1_554  A
C225        C226   1.400       .  A
C225        C456   1.413       .  A
C225        H229   1.083       .  S
C226        O230   1.371       .  S
O228        H232   0.992       .  S
O230        H231   0.992       .  S
O233        C248   1.278       .  A
O233       Al241   1.987       .  S
C234        O244   1.273       .  A
C234        O235   1.253       .  A
C234        C456   1.478       .  S
O235       Al237   1.867       .  S
O236        C238   1.277       .  A
Al237       O245   1.993       .  S
Al237       O247   1.860       .  S
Al237       O246   1.764       .  S
C238        C408   1.471       .  S
O239        C249   1.278       .  A
O239       Al705   1.990   1_545  S
O240        C253   1.273       .  A
O240       Al250   1.977       .  S
Al241       O703   2.003       .  S
Al241       O254   1.876       .  S
Al241       O251   1.863       .  S
Al241       O246   1.761       .  S
O242        C713   1.258       .  A
O242       Al250   1.868       .  S
O243        C252   1.260       .  A
O243       Al250   1.867       .  S
O244       Al250   1.975       .  S
O245        C252   1.280       .  A
O246       Al250   1.767       .  S
O247        C248   1.254       .  A
C248        C441   1.480       .  S
C249        O706   1.258   1_545  A
C249        C429   1.481       .  S
C252        C420   1.481       .  S
C253        O254   1.257       .  A
C253        C396   1.486       .  S
O255        C270   1.276       .  A
O255       Al263   1.978       .  S
C256        O266   1.273       .  A
C256       O1185   1.253   1_455  A
C256        C357   1.470       .  S
O257       C1184   1.255       .  A
O257       Al259   1.866       .  S
O258        C260   1.277       .  A
O258       Al259   1.981       .  S
Al259       O267   1.979       .  S
Al259       O269   1.861       .  S
Al259       O268   1.760       .  S
C260        O273   1.256       .  A
C260        C393   1.474       .  S
O261        C271   1.279       .  A
O261       Al727   1.993       .  S
O262        C275   1.276       .  A
O262       Al272   1.987       .  S
Al263       O725   1.994   1_545  S
Al263       O276   1.868       .  S
Al263       O273   1.860       .  S
Al263       O268   1.762       .  S
O264        C735   1.257   1_545  A
O264       Al272   1.869       .  S
O265        C274   1.258       .  A
O265       Al272   1.869       .  S
O266      Al1200   1.974   1_455  S
O267        C274   1.277       .  A
O268       Al272   1.762       .  S
O269        C270   1.254       .  A
C270        C348   1.481       .  S
C271        O728   1.260       .  A
C271        C381   1.483       .  S
Al272      O1194   1.975       .  S
C274        C372   1.473       .  S
C275        O276   1.256       .  A
C275        C405   1.487       .  S
O277        C292   1.279       .  A
O277       Al285   1.991       .  S
C278        O288   1.278       .  A
C278        O279   1.258       .  A
C278        C432   1.478       .  S
O279       Al281   1.868       .  S
O280        C282   1.275       .  A
O280       Al281   1.983       .  S
Al281       O289   1.979       .  S
Al281       O291   1.870       .  S
Al281       O290   1.763       .  S
C282        O295   1.254       .  A
C282        C324   1.483       .  S
O283        C293   1.275       .  A
O283       Al285   1.975       .  S
O284        C297   1.278       .  A
O284       Al294   1.981       .  S
Al285       O298   1.859       .  S
Al285       O295   1.866       .  S
Al285       O290   1.761       .  S
O286        C293   1.253       .  A
O286       Al294   1.857       .  S
O287        C296   1.253       .  A
O287       Al294   1.862       .  S
O288       Al294   1.991       .  S
O289        C296   1.275       .  A
O290       Al294   1.756       .  S
O291        C292   1.259       .  A
C292        C417   1.476       .  S
C293        C360   1.484       .  S
C296        C345   1.473       .  S
C297        O298   1.256       .  A
C297        C333   1.478       .  S
O299        C314   1.275       .  A
O299      Al1235   1.978       .  S
C300        O310   1.274       .  A
C300        O301   1.255       .  A
C300        C453   1.476       .  S
O301       Al303   1.861       .  S
O302        C304   1.279       .  A
O302       Al303   1.993       .  S
Al303       O313   1.873       .  S
Al303       O312   1.760       .  S
C304        O317   1.258       .  A
C304        C384   1.477       .  S
O305        C315   1.274       .  A
O305       Al307   1.978       .  S
O306        C319   1.278       .  A
O306       Al316   1.983       .  S
Al307      O1227   1.974   1_455  S
Al307       O320   1.870       .  S
Al307       O317   1.869       .  S
Al307       O312   1.765       .  S
O308        C315   1.254       .  A
O308       Al316   1.869       .  S
O309       Al316   1.863       .  S
O310       Al316   1.966       .  S
O311        C318   1.273       .  A
O312       Al316   1.762       .  S
O313       C1242   1.256   1_455  A
C314       O1241   1.255       .  A
C314        C444   1.488       .  S
C315        C336   1.478       .  S
C318        C321   1.467       .  S
C319        O320   1.259       .  A
C319        C369   1.477       .  S
C321        C322   1.408       .  A
C321        C326   1.397       .  A
C322        C323   1.401       .  A
C322        H327   1.084       .  S
C323        C324   1.405       .  A
C323        O328   1.371       .  S
C324        C325   1.415       .  A
C325        C326   1.398       .  A
C325        H329   1.083       .  S
C326        O330   1.372       .  S
O328        H332   0.991       .  S
O330        H331   0.992       .  S
C333        C334   1.412       .  A
C333        C338   1.400       .  A
C334        C335   1.402       .  A
C334        H339   1.084       .  S
C335        C336   1.402       .  A
C335        O340   1.371       .  S
C336        C337   1.411       .  A
C337        C338   1.399       .  A
C337        H341   1.083       .  S
C338        O342   1.371       .  S
O340        H344   0.992       .  S
O342        H343   0.991       .  S
C345        C346   1.410       .  A
C345        C350   1.398       .  A
C346        C347   1.400       .  A
C346        H351   1.084       .  S
C347        C348   1.402       .  A
C347        O352   1.371       .  S
C348        C349   1.415       .  A
C349        C350   1.400       .  A
C349        H353   1.083       .  S
C350        O354   1.371       .  S
O352        H356   0.992       .  S
O354        H355   0.992       .  S
C357        C358   1.408       .  A
C357        C362   1.397       .  A
C358        C359   1.399       .  A
C358        H363   1.084       .  S
C359        C360   1.405       .  A
C359        O364   1.371       .  S
C360        C361   1.416       .  A
C361        C362   1.399       .  A
C361        H365   1.083       .  S
C362        O366   1.371       .  S
O364        H368   0.992       .  S
O366        H367   0.992       .  S
C369        C370   1.405   1_455  A
C369       C1302   1.410       .  A
C370        C371   1.399       .  A
C370        H375   1.084       .  S
C371       C1300   1.407       .  A
C371        O376   1.372       .  S
C372       C1299   1.408       .  A
C372        C373   1.403       .  A
C373        C374   1.404       .  A
C373        H377   1.084       .  S
C374       C1297   1.409       .  A
C374        O378   1.371       .  S
O376        H380   0.992       .  S
O378        H379   0.991       .  S
C381       C1310   1.406       .  A
C381        C386   1.411       .  A
C382       C1309   1.406   1_455  A
C382        C383   1.400       .  A
C382        H387   1.084       .  S
C383        C384   1.408       .  A
C383        O388   1.372       .  S
C384       C1313   1.405   1_455  A
C385       C1312   1.405       .  A
C385        C386   1.407       .  A
C385        H389   1.083       .  S
C386        O390   1.371       .  S
O388        H392   0.991       .  S
O390        H391   0.992       .  S
C393        C858   1.408   1_545  A
C393        C398   1.399       .  A
C394        C857   1.411       .  A
C394        C395   1.403       .  A
C394        H399   1.084       .  S
C395        C396   1.404       .  A
C395        O400   1.371       .  S
C396        C861   1.414       .  A
C397        C860   1.415       .  A
C397        C398   1.402   1_565  A
C397        H401   1.083       .  S
C398        O402   1.371       .  S
O400        H404   0.992       .  S
O402        H403   0.992       .  S
C405        C406   1.415       .  A
C405        C410   1.406       .  A
C406        C871   1.400   1_545  A
C406        H411   1.083       .  S
C407        C870   1.399       .  A
C407        C408   1.397       .  A
C407        O412   1.371       .  S
C408        C873   1.409       .  A
C409        C872   1.408   1_545  A
C409        C410   1.403       .  A
C410        O414   1.371       .  S
O412        H416   0.991       .  S
O414        H415   0.992       .  S
C417        C418   1.406       .  A
C417        C422   1.407       .  A
C418        C419   1.407       .  A
C418        H423   1.084       .  S
C419        C420   1.410       .  A
C419        O424   1.371       .  S
C420        C421   1.406       .  A
C421        C422   1.399       .  A
C421        H425   1.084       .  S
C422        O426   1.372       .  S
O424        H428   0.991       .  S
O426        H427   0.991       .  S
C429        C430   1.406       .  A
C429        C434   1.410       .  A
C430        C431   1.406       .  A
C430        H435   1.084       .  S
C431        C432   1.409       .  A
C431        O436   1.371       .  S
C432        C433   1.404       .  A
C433        C434   1.401       .  A
C433        H437   1.084       .  S
C434        O438   1.372       .  S
O436        H440   0.991       .  S
O438        H439   0.992       .  S
C441        C446   1.400       .  A
C442        C443   1.400       .  A
C442        H447   1.084       .  S
C443        C444   1.407       .  A
C443        O448   1.372       .  S
C445        C446   1.405       .  A
C445        H449   1.083       .  S
C446        O450   1.371       .  S
O448        H452   0.991       .  S
O450        H451   0.991       .  S
C453        C458   1.401       .  A
C454        C455   1.399       .  A
C454        H459   1.084       .  S
C455        C456   1.402       .  A
C455        O460   1.371       .  S
C457        C458   1.400       .  A
C457        H461   1.084       .  S
C458        O462   1.372       .  S
O460        H464   0.992       .  S
O462        H463   0.992       .  S
O465        C480   1.275       .  A
O465       Al473   1.973       .  S
C466        O476   1.275       .  A
C466        O467   1.254       .  A
C466        C688   1.484       .  S
O467       Al469   1.866       .  S
O468        C470   1.276       .  A
O468       Al701   1.980       .  S
Al469       O700   1.970   1_554  S
Al469       O477   1.988       .  S
Al469       O479   1.864       .  S
Al469       O478   1.761       .  S
C470        O715   1.255       .  A
C470        C640   1.470       .  S
O471        C481   1.280       .  A
O472        C485   1.273       .  A
O472       Al482   1.970       .  S
Al473       O486   1.868       .  S
Al473       O483   1.866       .  S
Al473       O478   1.763       .  S
O474       Al482   1.871       .  S
O475        C484   1.258       .  A
O475       Al482   1.870       .  S
O476       Al482   1.980       .  S
O477        C484   1.278       .  A
O478       Al482   1.766       .  S
O479        C480   1.255       .  A
C480        C673   1.473       .  S
C481        C661   1.482       .  S
O483        C702   1.257   1_554  A
C484        C652   1.479       .  S
C485        O486   1.255       .  A
C485        C628   1.481       .  S
O487        C502   1.276       .  A
O487       Al495   1.976       .  S
C488        O498   1.276       .  A
C488       O1417   1.257   1_455  A
C488        C589   1.491       .  S
O489       C1416   1.259       .  A
O489       Al491   1.883       .  S
O490        C492   1.273       .  A
O490       Al491   1.966       .  S
Al491       O499   1.978       .  S
Al491       O501   1.852       .  S
Al491       O500   1.765       .  S
C492        O505   1.253       .  A
C492        C625   1.479       .  S
O493        C503   1.279       .  A
O494        C507   1.274       .  A
O494       Al504   1.977       .  S
Al495       O508   1.870       .  S
Al495       O505   1.862       .  S
Al495       O500   1.762       .  S
O496       Al504   1.869       .  S
O497        C506   1.260       .  A
O497       Al504   1.872       .  S
O498      Al1432   1.984   1_455  S
O499        C506   1.277       .  A
O500       Al504   1.762       .  S
O501        C502   1.255       .  A
C502        C580   1.474       .  S
C503        C613   1.470       .  S
Al504      O1426   1.982       .  S
C506        C604   1.476       .  S
C507        O508   1.254       .  A
C507        C637   1.485       .  S
O509        C524   1.276       .  A
O509       Al517   1.982       .  S
C510        O520   1.278       .  A
C510        O511   1.258       .  A
C510        C664   1.482       .  S
O511       Al513   1.876       .  S
O512        C514   1.277       .  A
O512       Al513   1.983       .  S
Al513       O521   1.968       .  S
Al513       O523   1.874       .  S
Al513       O522   1.760       .  S
C514        O527   1.257       .  A
C514        C556   1.482       .  S
O515        C525   1.274       .  A
O515       Al517   1.978       .  S
O516        C529   1.279       .  A
O516       Al526   1.991       .  S
Al517       O530   1.856       .  S
Al517       O527   1.867       .  S
Al517       O522   1.763       .  S
O518        C525   1.256       .  A
O518       Al526   1.877       .  S
O519        C528   1.257       .  A
O519       Al526   1.871       .  S
O520       Al526   1.990       .  S
O521        C528   1.275       .  A
O522       Al526   1.762       .  S
O523        C524   1.256       .  A
C524        C649   1.475       .  S
C525        C592   1.472       .  S
C528        C577   1.480       .  S
C529        O530   1.255       .  A
C529        C565   1.478       .  S
O531        C546   1.278       .  A
O531      Al1467   1.995       .  S
C532        O542   1.276       .  A
C532        O533   1.255       .  A
C532        C685   1.479       .  S
O533       Al535   1.859       .  S
O534        C536   1.279       .  A
O534       Al535   1.991       .  S
Al535       O775   1.981       .  S
Al535       O545   1.875       .  S
Al535       O544   1.760       .  S
C536        O549   1.258       .  A
C536        C616   1.480       .  S
O537        C547   1.276       .  A
O537       Al539   1.987       .  S
O538        C551   1.279       .  A
O538       Al548   1.991       .  S
Al539      O1459   1.991   1_455  S
Al539       O552   1.871       .  S
Al539       O549   1.869       .  S
Al539       O544   1.764       .  S
O540        C547   1.253       .  A
O540       Al548   1.864       .  S
O541        C782   1.254       .  A
O541       Al548   1.859       .  S
O542       Al548   1.981       .  S
O543        C550   1.274       .  A
O543       Al767   1.970   1_554  S
O544       Al548   1.760       .  S
O545       C1474   1.257   1_455  A
C546       O1473   1.256       .  A
C546        C676   1.492       .  S
C547        C568   1.482       .  S
C550        O773   1.256   1_554  A
C550        C553   1.476       .  S
C551        O552   1.259       .  A
C551        C601   1.477       .  S
C553        C554   1.410       .  A
C553        C558   1.400       .  A
C554        C555   1.402       .  A
C554        H559   1.084       .  S
C555        C556   1.403       .  A
C555        O560   1.371       .  S
C556        C557   1.414       .  A
C557        C558   1.400       .  A
C557        H561   1.083       .  S
C558        O562   1.372       .  S
O560        H564   0.992       .  S
O562        H563   0.992       .  S
C565        C566   1.412       .  A
C565        C570   1.399       .  A
C566        C567   1.401       .  A
C566        H571   1.084       .  S
C567        C568   1.402       .  A
C567        O572   1.371       .  S
C568        C569   1.415       .  A
C569        C570   1.402       .  A
C569        H573   1.083       .  S
C570        O574   1.371       .  S
O572        H576   0.992       .  S
O574        H575   0.991       .  S
C577        C578   1.413       .  A
C577        C582   1.403       .  A
C578        C579   1.403       .  A
C578        H583   1.083       .  S
C579        C580   1.400       .  A
C579        O584   1.371       .  S
C580        C581   1.409       .  A
C581        C582   1.397       .  A
C581        H585   1.084       .  S
C582        O586   1.371       .  S
O584        H588   0.992       .  S
O586        H587   0.992       .  S
C589        C590   1.413       .  A
C589        C594   1.411       .  A
C590        C591   1.403       .  A
C590        H595   1.083       .  S
C591        C592   1.403       .  A
C591        O596   1.371       .  S
C592        C593   1.404       .  A
C593        C594   1.402       .  A
C593        H597   1.084       .  S
C594        O598   1.371       .  S
O596        H600   0.992       .  S
O598        H599   0.992       .  S
C601        C602   1.403   1_455  A
C601       C1534   1.409       .  A
C602        C603   1.401       .  A
C602        H607   1.084       .  S
C603       C1532   1.410       .  A
C603        O608   1.372       .  S
C604       C1531   1.410       .  A
C604        C605   1.403       .  A
C605        C606   1.403       .  A
C605        H609   1.083       .  S
C606       C1529   1.409       .  A
C606        O610   1.371       .  S
O608        H612   0.992       .  S
O610        H611   0.992       .  S
C613       C1542   1.402       .  A
C613        C618   1.405       .  A
C614       C1541   1.403   1_455  A
C614        C615   1.399       .  A
C614        H619   1.084       .  S
C615        C616   1.411       .  A
C615        O620   1.372       .  S
C616       C1545   1.404   1_455  A
C617       C1544   1.407       .  A
C617        C618   1.397       .  A
C617        H621   1.084       .  S
C618        O622   1.372       .  S
O620        H624   0.991       .  S
O622        H623   0.992       .  S
C625        C630   1.401       .  A
C626        C627   1.398       .  A
C626        H631   1.084       .  S
C627        C628   1.405       .  A
C627        O632   1.371       .  S
C629        C630   1.397       .  A
C629        H633   1.084       .  S
C630        O634   1.372       .  S
O632        H636   0.992       .  S
O634        H635   0.992       .  S
C637        C638   1.414       .  A
C637        C642   1.402       .  A
C638        H643   1.084       .  S
C639        C640   1.400   1_545  A
C639        O644   1.371       .  S
C641        C642   1.401       .  A
C641        H877   1.084       .  S
C642        O646   1.371       .  S
O644        H648   0.991   1_545  S
H645        C873   1.084       .  S
O646        H647   0.992       .  S
C649        C650   1.404       .  A
C649        C654   1.408       .  A
C650        C651   1.405       .  A
C650        H655   1.084       .  S
C651        C652   1.409       .  A
C651        O656   1.371       .  S
C652        C653   1.406       .  A
C653        C654   1.401       .  A
C653        H657   1.084       .  S
C654        O658   1.372       .  S
O656        H660   0.991       .  S
O658        H659   0.991       .  S
C661        C662   1.403       .  A
C661        C666   1.413       .  A
C662        C663   1.407       .  A
C662        H667   1.084       .  S
C663        C664   1.410       .  A
C663        O668   1.370       .  S
C664        C665   1.403       .  A
C665        C666   1.402       .  A
C665        H669   1.084       .  S
C666        O670   1.372       .  S
O668        H672   0.991       .  S
O670        H671   0.991       .  S
C673        C906   1.408   1_554  A
C673        C678   1.398       .  A
C674        C905   1.409       .  A
C674        C675   1.404       .  A
C674        H679   1.084       .  S
C675        C676   1.406       .  A
C675        O680   1.372       .  S
C676        C909   1.417       .  A
C677        C908   1.416   1_554  A
C677        C678   1.401       .  A
C677        H681   1.083       .  S
C678        O682   1.371       .  S
O680        H684   0.992       .  S
O682        H683   0.992       .  S
C685        C918   1.410       .  A
C685        C690   1.402       .  A
C686        C917   1.409   1_554  A
C686        C687   1.401       .  A
C686        H691   1.084       .  S
C687        C688   1.405       .  A
C687        O692   1.371       .  S
C688        C921   1.414   1_554  A
C689        C920   1.413       .  A
C689        C690   1.404       .  A
C689        H693   1.084       .  S
C690        O694   1.371       .  S
O692        H696   0.992       .  S
O694        H695   0.992       .  S
O697        C712   1.277       .  A
O697       Al705   1.990       .  S
C698        O708   1.275       .  A
C698        O699   1.257       .  A
C698        C920   1.481       .  S
O699       Al701   1.871       .  S
O700        C702   1.274       .  A
Al701       O709   1.982       .  S
Al701       O711   1.862       .  S
Al701       O710   1.764       .  S
C702        C872   1.473       .  S
O703        C713   1.281       .  A
O704        C717   1.276       .  A
O704       Al714   1.983       .  S
Al705       O718   1.871       .  S
Al705       O715   1.868       .  S
Al705       O710   1.763       .  S
O706       Al714   1.876       .  S
O707        C716   1.260       .  A
O707       Al714   1.876       .  S
O708       Al714   1.974       .  S
O709        C716   1.277       .  A
O710       Al714   1.763       .  S
O711        C712   1.254       .  A
C712        C905   1.476       .  S
C713        C893   1.481       .  S
C716        C884   1.482       .  S
C717        O718   1.257       .  A
C717        C860   1.488       .  S
O719        C734   1.274       .  A
O719       Al727   1.968       .  S
C720        O730   1.274       .  A
C720       O1649   1.255   1_455  A
C720        C821   1.480       .  S
O721       C1648   1.255       .  A
O721       Al723   1.869       .  S
O722        C724   1.277       .  A
O722       Al723   1.982       .  S
Al723       O731   1.987       .  S
Al723       O733   1.864       .  S
Al723       O732   1.760       .  S
C724        O737   1.256       .  A
C724        C857   1.480       .  S
O725        C735   1.279       .  A
O726        C739   1.274       .  A
O726       Al736   1.983       .  S
Al727       O740   1.870       .  S
Al727       O737   1.859       .  S
Al727       O732   1.761       .  S
O728       Al736   1.873       .  S
O729        C738   1.260       .  A
O729       Al736   1.873       .  S
O730      Al1664   1.976   1_455  S
O731        C738   1.278       .  A
O732       Al736   1.768       .  S
O733        C734   1.254       .  A
C734        C812   1.486       .  S
C735        C845   1.483       .  S
Al736      O1658   1.972       .  S
C738        C836   1.474       .  S
C739        O740   1.255       .  A
C739        C869   1.486       .  S
O741        C756   1.279       .  A
O741       Al749   1.993       .  S
C742        O752   1.281       .  A
C742        O743   1.259       .  A
C742        C896   1.489       .  S
O743       Al745   1.870       .  S
O744        C746   1.277       .  A
O744       Al745   1.993       .  S
Al745       O753   1.987       .  S
Al745       O755   1.865       .  S
Al745       O754   1.763       .  S
C746        O759   1.253       .  A
C746        C788   1.486       .  S
O747        C757   1.276       .  A
O747       Al749   1.978       .  S
O748        C761   1.278       .  A
O748       Al758   1.984       .  S
Al749       O762   1.860       .  S
Al749       O759   1.863       .  S
Al749       O754   1.759       .  S
O750        C757   1.256       .  A
O750       Al758   1.860       .  S
O751        C760   1.253       .  A
O751       Al758   1.863       .  S
O752       Al758   2.006       .  S
O753        C760   1.276       .  A
O754       Al758   1.758       .  S
O755        C756   1.257       .  A
C756        C881   1.474       .  S
C757        C824   1.479       .  S
C760        C809   1.473       .  S
C761        O762   1.255       .  A
C761        C797   1.483       .  S
O763        C778   1.277       .  A
O763      Al1699   1.986       .  S
C764        O774   1.275       .  A
C764        O765   1.256       .  A
C764        C917   1.474       .  S
O765       Al767   1.862       .  S
O766        C768   1.279       .  A
O766       Al767   1.992       .  S
Al767       O777   1.865       .  S
Al767       O776   1.761       .  S
C768        O781   1.258       .  A
C768        C848   1.475       .  S
O769        C779   1.274       .  A
O769       Al771   1.983       .  S
O770        C783   1.280       .  A
O770       Al780   1.993       .  S
Al771      O1691   1.985   1_455  S
Al771       O784   1.866       .  S
Al771       O781   1.867       .  S
Al771       O776   1.765       .  S
O772        C779   1.254       .  A
O772       Al780   1.868       .  S
O773       Al780   1.862       .  S
O774       Al780   1.973       .  S
O775        C782   1.276       .  A
O776       Al780   1.759       .  S
O777       C1706   1.254   1_455  A
C778       O1705   1.255       .  A
C778        C908   1.487       .  S
C779        C800   1.479       .  S
C782        C785   1.475       .  S
C783        O784   1.259       .  A
C783        C833   1.482       .  S
C785        C786   1.410       .  A
C785        C790   1.398       .  A
C786        C787   1.402       .  A
C786        H791   1.084       .  S
C787        C788   1.403       .  A
C787        O792   1.371       .  S
C788        C789   1.416       .  A
C789        C790   1.401       .  A
C789        H793   1.083       .  S
C790        O794   1.371       .  S
O792        H796   0.991       .  S
O794        H795   0.992       .  S
C797        C798   1.415       .  A
C797        C802   1.401       .  A
C798        C799   1.403       .  A
C798        H803   1.084       .  S
C799        C800   1.401       .  A
C799        O804   1.371       .  S
C800        C801   1.411       .  A
C801        C802   1.400       .  A
C801        H805   1.083       .  S
C802        O806   1.371       .  S
O804        H808   0.992       .  S
O806        H807   0.991       .  S
C809        C810   1.408       .  A
C809        C814   1.398       .  A
C810        C811   1.398       .  A
C810        H815   1.084       .  S
C811        C812   1.405       .  A
C811        O816   1.371       .  S
C812        C813   1.416       .  A
C813        C814   1.403       .  A
C813        H817   1.083       .  S
C814        O818   1.371       .  S
O816        H820   0.992       .  S
O818        H819   0.992       .  S
C821        C822   1.413       .  A
C821        C826   1.401       .  A
C822        C823   1.402       .  A
C822        H827   1.084       .  S
C823        C824   1.401       .  A
C823        O828   1.371       .  S
C824        C825   1.411       .  A
C825        C826   1.400       .  A
C825        H829   1.084       .  S
C826        O830   1.371       .  S
O828        H832   0.992       .  S
O830        H831   0.992       .  S
C833        C834   1.407   1_455  A
C833       C1766   1.410       .  A
C834        C835   1.400       .  A
C834        H839   1.084       .  S
C835       C1764   1.405       .  A
C835        O840   1.372       .  S
C836       C1763   1.404       .  A
C836        C837   1.404       .  A
C837        C838   1.407       .  A
C837        H841   1.084       .  S
C838       C1761   1.411       .  A
C838        O842   1.371       .  S
O840        H844   0.992       .  S
O842        H843   0.992       .  S
C845       C1774   1.408       .  A
C845        C850   1.411       .  A
C846       C1773   1.406   1_455  A
C846        C847   1.397       .  A
C846        H851   1.084       .  S
C847        C848   1.407       .  A
C847        O852   1.372       .  S
C848       C1777   1.406   1_455  A
C849       C1776   1.404       .  A
C849        C850   1.406       .  A
C849        H853   1.084       .  S
C850        O854   1.371       .  S
O852        H856   0.991       .  S
O854        H855   0.991       .  S
C857        C862   1.400       .  A
C858        C859   1.403       .  A
C858        H863   1.084   1_565  S
C859        C860   1.406       .  A
C859        O864   1.371       .  S
C861        C862   1.403       .  A
C861        H865   1.083       .  S
C862        O866   1.371       .  S
O864        H868   0.992       .  S
O866        H867   0.992       .  S
C869        C870   1.415       .  A
C869        C874   1.406       .  A
C870        H875   1.083       .  S
C871        C872   1.398       .  A
C871        O876   1.371       .  S
C873        C874   1.403       .  A
C874        O878   1.371       .  S
O876        H880   0.992       .  S
O878        H879   0.992       .  S
C881        C882   1.404       .  A
C881        C886   1.407       .  A
C882        C883   1.407       .  A
C882        H887   1.084       .  S
C883        C884   1.411       .  A
C883        O888   1.372       .  S
C884        C885   1.405       .  A
C885        C886   1.400       .  A
C885        H889   1.084       .  S
C886        O890   1.372       .  S
O888        H892   0.992       .  S
O890        H891   0.991       .  S
C893        C894   1.407       .  A
C893        C898   1.407       .  A
C894        C895   1.411       .  A
C894        H899   1.084       .  S
C895        C896   1.412       .  A
C895        O900   1.370       .  S
C896        C897   1.407       .  A
C897        C898   1.400       .  A
C897        H901   1.084       .  S
C898        O902   1.372       .  S
O900        H904   0.992       .  S
O902        H903   0.991       .  S
C905        C910   1.398       .  A
C906        C907   1.402       .  A
C906        H911   1.084       .  S
C907        C908   1.405       .  A
C907        O912   1.371       .  S
C909        C910   1.403       .  A
C909        H913   1.083       .  S
C910        O914   1.371       .  S
O912        H916   0.992       .  S
O914        H915   0.992       .  S
C917        C922   1.398       .  A
C918        C919   1.399       .  A
C918        H923   1.084       .  S
C919        C920   1.402       .  A
C919        O924   1.371       .  S
C921        C922   1.400       .  A
C921        H925   1.083       .  S
C922        O926   1.371       .  S
O924        H928   0.992       .  S
O926        H927   0.992       .  S
O929        C944   1.274       .  A
O929       Al937   1.972       .  S
C930        O940   1.275       .  A
C930        O931   1.255       .  A
C930       C1152   1.475       .  S
O931       Al933   1.864       .  S
O932        C934   1.274       .  A
O932      Al1165   1.970       .  S
Al933      O1164   1.980   1_554  S
Al933       O941   1.997       .  S
Al933       O943   1.865       .  S
Al933       O942   1.758       .  S
C934       O1179   1.255       .  A
C934       C1104   1.480       .  S
O935        C945   1.279       .  A
O935      Al1401   1.993   1_545  S
O936        C949   1.275       .  A
O936       Al946   1.987       .  S
Al937      O1399   2.001       .  S
Al937       O950   1.856       .  S
Al937       O947   1.859       .  S
Al937       O942   1.759       .  S
O938       C1409   1.257       .  A
O938       Al946   1.868       .  S
O939        C948   1.259       .  A
O939       Al946   1.870       .  S
O940       Al946   1.977       .  S
O941        C948   1.279       .  A
O942       Al946   1.766       .  S
O943        C944   1.255       .  A
C944       C1137   1.471       .  S
C945       O1402   1.260   1_545  A
C945       C1125   1.479       .  S
O947       C1166   1.256   1_554  A
C948       C1116   1.483       .  S
C949        O950   1.250       .  A
C949       C1092   1.471       .  S
O951        C966   1.276       .  A
O951       Al959   1.975       .  S
C952        O962   1.273       .  A
C952       C1053   1.481       .  S
O953       Al955   1.871       .  S
O954        C956   1.273       .  A
O954       Al955   1.964       .  S
Al955       O963   1.974       .  S
Al955       O965   1.856       .  S
Al955       O964   1.763       .  S
C956        O969   1.253       .  A
C956       C1089   1.469       .  S
O957        C967   1.275       .  A
O957      Al1423   1.969       .  S
O958        C971   1.273       .  A
O958       Al968   1.985       .  S
Al959      O1421   1.995   1_545  S
Al959       O972   1.867       .  S
Al959       O969   1.854       .  S
Al959       O964   1.759       .  S
O960       C1431   1.260   1_545  A
O960       Al968   1.868       .  S
O961        C970   1.259       .  A
O961       Al968   1.865       .  S
O963        C970   1.276       .  A
O964       Al968   1.767       .  S
O965        C966   1.254       .  A
C966       C1044   1.478       .  S
C967       O1424   1.259       .  A
C967       C1077   1.469       .  S
C970       C1068   1.465       .  S
C971        O972   1.252       .  A
C971       C1101   1.477       .  S
O973        C988   1.280       .  A
O973       Al981   2.000       .  S
C974        O984   1.280       .  A
C974        O975   1.259       .  A
C974       C1128   1.481       .  S
O975       Al977   1.870       .  S
O976        C978   1.275       .  A
O976       Al977   1.982       .  S
Al977       O985   1.979       .  S
Al977       O987   1.865       .  S
Al977       O986   1.764       .  S
C978        O991   1.255       .  A
C978       C1020   1.491       .  S
O979        C989   1.276       .  A
O979       Al981   1.977       .  S
O980        C993   1.278       .  A
O980       Al990   1.984       .  S
Al981       O994   1.865       .  S
Al981       O991   1.873       .  S
Al981       O986   1.761       .  S
O982        C989   1.256       .  A
O982       Al990   1.862       .  S
O983        C992   1.255       .  A
O983       Al990   1.868       .  S
O984       Al990   1.998       .  S
O985        C992   1.275       .  A
O986       Al990   1.761       .  S
O987        C988   1.258       .  A
C988       C1113   1.482       .  S
C989       C1056   1.479       .  S
C992       C1041   1.480       .  S
C993        O994   1.257       .  A
C993       C1029   1.487       .  S
O995       C1010   1.275       .  A
C996       O1006   1.275       .  A
C996        O997   1.254       .  A
C996       C1149   1.475       .  S
O997       Al999   1.856       .  S
O998       C1000   1.278       .  A
O998       Al999   1.980       .  S
Al999      O1239   1.968       .  S
Al999      O1009   1.876       .  S
Al999      O1008   1.761       .  S
C1000      O1013   1.258       .  A
C1000      C1080   1.469       .  S
O1001      C1011   1.274       .  A
O1001     Al1003   1.987       .  S
O1002      C1015   1.279       .  A
O1002     Al1012   1.983       .  S
Al1003     O1016   1.861       .  S
Al1003     O1013   1.864       .  S
Al1003     O1008   1.765       .  S
O1004      C1011   1.255       .  A
O1004     Al1012   1.873       .  S
O1005      C1246   1.254       .  A
O1005     Al1012   1.857       .  S
O1006     Al1012   1.975       .  S
O1007      C1014   1.276       .  A
O1007     Al1231   1.983   1_554  S
O1008     Al1012   1.763       .  S
C1010      C1140   1.485       .  S
C1011      C1032   1.483       .  S
C1014      O1237   1.254   1_554  A
C1014      C1017   1.473       .  S
C1015      O1016   1.258       .  A
C1015      C1065   1.472       .  S
C1017      C1018   1.407       .  A
C1017      C1022   1.399       .  A
C1018      C1019   1.402       .  A
C1018      H1023   1.084       .  S
C1019      C1020   1.408       .  A
C1019      O1024   1.372       .  S
C1020      C1021   1.416       .  A
C1021      C1022   1.403       .  A
C1021      H1025   1.083       .  S
C1022      O1026   1.371       .  S
O1024      H1028   0.991       .  S
O1026      H1027   0.992       .  S
C1029      C1030   1.415       .  A
C1029      C1034   1.403       .  A
C1030      C1031   1.404       .  A
C1030      H1035   1.084       .  S
C1031      C1032   1.401       .  A
C1031      O1036   1.371       .  S
C1032      C1033   1.412       .  A
C1033      C1034   1.403       .  A
C1033      H1037   1.083       .  S
C1034      O1038   1.371       .  S
O1036      H1040   0.991       .  S
O1038      H1039   0.992       .  S
C1041      C1042   1.413       .  A
C1041      C1046   1.402       .  A
C1042      C1043   1.401       .  A
C1042      H1047   1.083       .  S
C1043      C1044   1.400       .  A
C1043      O1048   1.371       .  S
C1044      C1045   1.412       .  A
C1045      C1046   1.400       .  A
C1045      H1049   1.084       .  S
C1046      O1050   1.371       .  S
O1048      H1052   0.992       .  S
O1050      H1051   0.992       .  S
C1053      C1054   1.413       .  A
C1053      C1058   1.402       .  A
C1054      C1055   1.401       .  A
C1054      H1059   1.083       .  S
C1055      C1056   1.400       .  A
C1055      O1060   1.371       .  S
C1056      C1057   1.412       .  A
C1057      C1058   1.402       .  A
C1057      H1061   1.084       .  S
C1058      O1062   1.371       .  S
O1060      H1064   0.992       .  S
O1062      H1063   0.992       .  S
C1065      C1066   1.405       .  A
C1066      C1067   1.396       .  A
C1066      H1071   1.084       .  S
C1067      O1072   1.372       .  S
C1068      C1069   1.403   1_655  A
C1069      C1070   1.404       .  A
C1069      H1073   1.084       .  S
C1070      O1074   1.370       .  S
O1072      H1076   0.992       .  S
O1074      H1075   0.992       .  S
C1077      C1082   1.410       .  A
C1078      C1079   1.397       .  A
C1078      H1083   1.084       .  S
C1079      C1080   1.408       .  A
C1079      O1084   1.372       .  S
C1081      C1082   1.401       .  A
C1081      H1085   1.084       .  S
C1082      O1086   1.371       .  S
O1084      H1088   0.991       .  S
O1086      H1087   0.992       .  S
C1089      C1554   1.408   1_545  A
C1089      C1094   1.397       .  A
C1090      C1553   1.414       .  A
C1090      C1091   1.399       .  A
C1090      H1095   1.083       .  S
C1091      C1092   1.397       .  A
C1091      O1096   1.371       .  S
C1092      C1557   1.412       .  A
C1093      C1556   1.414       .  A
C1093      C1094   1.399   1_565  A
C1093      H1097   1.083       .  S
C1094      O1098   1.371       .  S
O1096      H1100   0.991       .  S
O1098      H1099   0.992       .  S
C1101      C1102   1.411       .  A
C1101      C1106   1.398       .  A
C1102      C1567   1.400   1_545  A
C1102      H1107   1.083   1_545  S
C1103      C1566   1.402       .  A
C1103      C1104   1.402       .  A
C1103      O1108   1.371       .  S
C1104      C1569   1.411       .  A
C1105      C1568   1.416   1_545  A
C1105      C1106   1.402       .  A
C1105      H1341   1.083       .  S
C1106      O1110   1.371       .  S
O1108      H1112   0.992       .  S
H1109      C1337   1.084   1_554  S
O1110      H1111   0.992       .  S
C1113      C1114   1.406       .  A
C1113      C1118   1.409       .  A
C1114      C1115   1.409       .  A
C1114      H1119   1.084       .  S
C1115      C1116   1.412       .  A
C1115      O1120   1.371       .  S
C1116      C1117   1.404       .  A
C1117      C1118   1.400       .  A
C1117      H1121   1.084       .  S
C1118      O1122   1.373       .  S
O1120      H1124   0.991       .  S
O1122      H1123   0.991       .  S
C1125      C1126   1.405       .  A
C1125      C1130   1.409       .  A
C1126      C1127   1.408       .  A
C1126      H1131   1.084       .  S
C1127      C1128   1.411       .  A
C1127      O1132   1.371       .  S
C1128      C1129   1.404       .  A
C1129      C1130   1.399       .  A
C1129      H1133   1.084       .  S
C1130      O1134   1.372       .  S
O1132      H1136   0.992       .  S
O1134      H1135   0.992       .  S
C1137      C1370   1.405   1_554  A
C1137      C1142   1.399       .  A
C1138      C1369   1.412       .  A
C1138      C1139   1.402       .  A
C1138      H1143   1.084       .  S
C1139      C1140   1.403       .  A
C1139      O1144   1.371       .  S
C1140      C1373   1.415       .  A
C1141      C1372   1.416   1_554  A
C1141      C1142   1.402       .  A
C1141      H1145   1.083       .  S
C1142      O1146   1.371       .  S
O1144      H1148   0.992       .  S
O1146      H1147   0.992       .  S
C1149      C1382   1.409       .  A
C1149      C1154   1.399       .  A
C1150      C1381   1.412   1_554  A
C1150      C1151   1.400       .  A
C1150      H1155   1.084       .  S
C1151      C1152   1.400       .  A
C1151      O1156   1.371       .  S
C1152      C1385   1.411   1_554  A
C1153      C1384   1.415       .  A
C1153      C1154   1.402       .  A
C1153      H1157   1.083       .  S
C1154      O1158   1.371       .  S
O1156      H1160   0.992       .  S
O1158      H1159   0.992       .  S
O1161      C1176   1.277       .  A
O1161     Al1169   1.985       .  S
C1162      O1172   1.274       .  A
C1162      O1163   1.254       .  A
C1162      C1384   1.484       .  S
O1163     Al1165   1.870       .  S
O1164      C1166   1.277       .  A
Al1165     O1173   1.983       .  S
Al1165     O1175   1.854       .  S
Al1165     O1174   1.763       .  S
C1166      C1336   1.475       .  S
O1167      C1177   1.277       .  A
O1167     Al1633   1.985   1_545  S
O1168      C1181   1.273       .  A
O1168     Al1178   1.976       .  S
Al1169     O1631   1.998       .  S
Al1169     O1182   1.875       .  S
Al1169     O1179   1.861       .  S
Al1169     O1174   1.762       .  S
O1170      C1641   1.260       .  A
O1170     Al1178   1.871       .  S
O1171      C1180   1.260       .  A
O1171     Al1178   1.868       .  S
O1172     Al1178   1.979       .  S
O1173      C1180   1.278       .  A
O1174     Al1178   1.766       .  S
O1175      C1176   1.253       .  A
C1176      C1369   1.480       .  S
C1177      O1634   1.259   1_545  A
C1177      C1357   1.478       .  S
C1180      C1348   1.474       .  S
C1181      O1182   1.256       .  A
C1181      C1324   1.485       .  S
O1183      C1198   1.274       .  A
O1183     Al1191   1.971       .  S
C1184      O1194   1.275       .  A
C1184      C1285   1.477       .  S
O1185     Al1187   1.864       .  S
O1186      C1188   1.277       .  A
O1186     Al1187   1.981       .  S
Al1187     O1195   1.985       .  S
Al1187     O1197   1.859       .  S
Al1187     O1196   1.757       .  S
C1188      O1201   1.257       .  A
C1188      C1321   1.478       .  S
O1189      C1199   1.279       .  A
O1189     Al1655   1.991       .  S
O1190      C1203   1.275       .  A
O1190     Al1200   1.979       .  S
Al1191     O1653   1.996   1_545  S
Al1191     O1204   1.866       .  S
Al1191     O1201   1.861       .  S
Al1191     O1196   1.761       .  S
O1192      C1663   1.258   1_545  A
O1192     Al1200   1.865       .  S
O1193      C1202   1.257       .  A
O1193     Al1200   1.864       .  S
O1195      C1202   1.278       .  A
O1196     Al1200   1.764       .  S
O1197      C1198   1.253       .  A
C1198      C1276   1.477       .  S
C1199      O1656   1.260       .  A
C1199      C1309   1.483       .  S
C1202      C1300   1.471       .  S
C1203      O1204   1.255       .  A
C1203      C1333   1.480       .  S
O1205      C1220   1.279       .  A
O1205     Al1213   1.989       .  S
C1206      O1216   1.279       .  A
C1206      O1207   1.258       .  A
C1206      C1360   1.476       .  S
O1207     Al1209   1.866       .  S
O1208      C1210   1.276       .  A
O1208     Al1209   1.989       .  S
Al1209     O1217   1.978       .  S
Al1209     O1219   1.865       .  S
Al1209     O1218   1.763       .  S
C1210      O1223   1.254       .  A
C1210      C1252   1.485       .  S
O1211      C1221   1.275       .  A
O1211     Al1213   1.975       .  S
O1212      C1225   1.277       .  A
O1212     Al1222   1.978       .  S
Al1213     O1226   1.858       .  S
Al1213     O1223   1.864       .  S
Al1213     O1218   1.759       .  S
O1214      C1221   1.254       .  A
O1214     Al1222   1.858       .  S
O1215      C1224   1.253       .  A
O1215     Al1222   1.862       .  S
O1216     Al1222   1.990       .  S
O1217      C1224   1.275       .  A
O1218     Al1222   1.755       .  S
O1219      C1220   1.256       .  A
C1220      C1345   1.473       .  S
C1221      C1288   1.480       .  S
C1224      C1273   1.474       .  S
C1225      O1226   1.256       .  A
C1225      C1261   1.475       .  S
O1227      C1242   1.274       .  A
C1228      O1238   1.275       .  A
C1228      O1229   1.255       .  A
C1228      C1381   1.478       .  S
O1229     Al1231   1.860       .  S
O1230      C1232   1.280       .  A
O1230     Al1231   1.997       .  S
Al1231     O1241   1.870       .  S
Al1231     O1240   1.759       .  S
C1232      O1245   1.258       .  A
C1232      C1312   1.477       .  S
O1233      C1243   1.274       .  A
O1233     Al1235   1.978       .  S
O1234      C1247   1.278       .  A
O1234     Al1244   1.986       .  S
Al1235     O1248   1.869       .  S
Al1235     O1245   1.866       .  S
Al1235     O1240   1.765       .  S
O1236      C1243   1.254       .  A
O1236     Al1244   1.868       .  S
O1237     Al1244   1.858       .  S
O1238     Al1244   1.971       .  S
O1239      C1246   1.274       .  A
O1240     Al1244   1.759       .  S
C1242      C1372   1.488       .  S
C1243      C1264   1.478       .  S
C1246      C1249   1.470       .  S
C1247      O1248   1.259       .  A
C1247      C1297   1.475       .  S
C1249      C1250   1.409       .  A
C1249      C1254   1.397       .  A
C1250      C1251   1.402       .  A
C1250      H1255   1.084       .  S
C1251      C1252   1.405       .  A
C1251      O1256   1.371       .  S
C1252      C1253   1.415       .  A
C1253      C1254   1.398       .  A
C1253      H1257   1.083       .  S
C1254      O1258   1.371       .  S
O1256      H1260   0.991       .  S
O1258      H1259   0.992       .  S
C1261      C1262   1.412       .  A
C1261      C1266   1.399       .  A
C1262      C1263   1.401       .  A
C1262      H1267   1.084       .  S
C1263      C1264   1.402       .  A
C1263      O1268   1.371       .  S
C1264      C1265   1.412       .  A
C1265      C1266   1.399       .  A
C1265      H1269   1.083       .  S
C1266      O1270   1.371       .  S
O1268      H1272   0.992       .  S
O1270      H1271   0.991       .  S
C1273      C1274   1.411       .  A
C1273      C1278   1.399       .  A
C1274      C1275   1.399       .  A
C1274      H1279   1.084       .  S
C1275      C1276   1.401       .  A
C1275      O1280   1.371       .  S
C1276      C1277   1.413       .  A
C1277      C1278   1.400       .  A
C1277      H1281   1.084       .  S
C1278      O1282   1.371       .  S
O1280      H1284   0.992       .  S
O1282      H1283   0.992       .  S
C1285      C1286   1.412       .  A
C1285      C1290   1.400       .  A
C1286      C1287   1.402       .  A
C1286      H1291   1.084       .  S
C1287      C1288   1.402       .  A
C1287      O1292   1.371       .  S
C1288      C1289   1.413       .  A
C1289      C1290   1.398       .  A
C1289      H1293   1.084       .  S
C1290      O1294   1.371       .  S
O1292      H1296   0.992       .  S
O1294      H1295   0.992       .  S
C1297      C1298   1.404       .  A
C1298      C1299   1.399       .  A
C1298      H1303   1.084       .  S
C1299      O1304   1.372       .  S
C1300      C1301   1.403   1_655  A
C1301      C1302   1.404       .  A
C1301      H1305   1.084       .  S
C1302      O1306   1.371       .  S
O1304      H1308   0.992       .  S
O1306      H1307   0.991       .  S
C1309      C1314   1.411       .  A
C1310      C1311   1.399       .  A
C1310      H1315   1.084       .  S
C1311      C1312   1.408       .  A
C1311      O1316   1.372       .  S
C1313      C1314   1.406       .  A
C1313      H1317   1.083       .  S
C1314      O1318   1.371       .  S
O1316      H1320   0.991       .  S
O1318      H1319   0.992       .  S
C1321      C1786   1.409   1_545  A
C1321      C1326   1.400       .  A
C1322      C1785   1.411       .  A
C1322      C1323   1.402       .  A
C1322      H1327   1.084       .  S
C1323      C1324   1.403       .  A
C1323      O1328   1.371       .  S
C1324      C1789   1.414       .  A
C1325      C1788   1.415       .  A
C1325      C1326   1.403   1_565  A
C1325      H1329   1.083       .  S
C1326      O1330   1.371       .  S
O1328      H1332   0.992       .  S
O1330      H1331   0.992       .  S
C1333      C1334   1.414       .  A
C1333      C1338   1.404       .  A
C1334      C1799   1.398   1_545  A
C1334      H1339   1.083       .  S
C1335      C1798   1.400       .  A
C1335      C1336   1.398       .  A
C1335      O1340   1.371       .  S
C1336      C1801   1.411       .  A
C1337      C1800   1.408   1_545  A
C1337      C1338   1.400       .  A
C1338      O1342   1.371       .  S
O1340      H1344   0.991       .  S
O1342      H1343   0.992       .  S
C1345      C1346   1.404       .  A
C1345      C1350   1.408       .  A
C1346      C1347   1.404       .  A
C1346      H1351   1.084       .  S
C1347      C1348   1.409       .  A
C1347      O1352   1.371       .  S
C1348      C1349   1.404       .  A
C1349      C1350   1.398       .  A
C1349      H1353   1.084       .  S
C1350      O1354   1.372       .  S
O1352      H1356   0.991       .  S
O1354      H1355   0.991       .  S
C1357      C1358   1.406       .  A
C1357      C1362   1.409       .  A
C1358      C1359   1.405       .  A
C1358      H1363   1.084       .  S
C1359      C1360   1.409       .  A
C1359      O1364   1.372       .  S
C1360      C1361   1.405       .  A
C1361      C1362   1.400       .  A
C1361      H1365   1.084       .  S
C1362      O1366   1.372       .  S
O1364      H1368   0.991       .  S
O1366      H1367   0.992       .  S
C1369      C1374   1.400       .  A
C1370      C1371   1.400       .  A
C1370      H1375   1.084       .  S
C1371      C1372   1.408       .  A
C1371      O1376   1.372       .  S
C1373      C1374   1.403       .  A
C1373      H1377   1.083       .  S
C1374      O1378   1.371       .  S
O1376      H1380   0.991       .  S
O1378      H1379   0.992       .  S
C1381      C1386   1.401       .  A
C1382      C1383   1.399       .  A
C1382      H1387   1.084       .  S
C1383      C1384   1.404       .  A
C1383      O1388   1.371       .  S
C1385      C1386   1.400       .  A
C1385      H1389   1.084       .  S
C1386      O1390   1.371       .  S
O1388      H1392   0.992       .  S
O1390      H1391   0.992       .  S
O1393      C1408   1.274       .  A
O1393     Al1401   1.973       .  S
C1394      O1404   1.275       .  A
C1394      O1395   1.253       .  A
C1394      C1616   1.483       .  S
O1395     Al1397   1.865       .  S
O1396      C1398   1.277       .  A
O1396     Al1629   1.983       .  S
Al1397     O1628   1.968   1_554  S
Al1397     O1405   1.987       .  S
Al1397     O1407   1.859       .  S
Al1397     O1406   1.759       .  S
C1398      O1643   1.255       .  A
C1398      C1568   1.484       .  S
O1399      C1409   1.280       .  A
O1400      C1413   1.273       .  A
O1400     Al1410   1.974       .  S
Al1401     O1414   1.868       .  S
Al1401     O1411   1.855       .  S
Al1401     O1406   1.761       .  S
O1402     Al1410   1.869       .  S
O1403      C1412   1.258       .  A
O1403     Al1410   1.865       .  S
O1404     Al1410   1.979       .  S
O1405      C1412   1.278       .  A
O1406     Al1410   1.764       .  S
O1407      C1408   1.254       .  A
C1408      C1601   1.472       .  S
C1409      C1589   1.482       .  S
O1411      C1630   1.255   1_554  A
C1412      C1580   1.475       .  S
C1413      O1414   1.255       .  A
C1413      C1556   1.480       .  S
O1415      C1430   1.276       .  A
O1415     Al1423   1.976       .  S
C1416      O1426   1.276       .  A
C1416      C1517   1.492       .  S
O1417     Al1419   1.877       .  S
O1418      C1420   1.274       .  A
O1418     Al1419   1.970       .  S
Al1419     O1427   1.984       .  S
Al1419     O1429   1.851       .  S
Al1419     O1428   1.761       .  S
C1420      O1433   1.252       .  A
C1420      C1553   1.475       .  S
O1421      C1431   1.280       .  A
O1422      C1435   1.274       .  A
O1422     Al1432   1.976       .  S
Al1423     O1436   1.868       .  S
Al1423     O1433   1.856       .  S
Al1423     O1428   1.760       .  S
O1424     Al1432   1.867       .  S
O1425      C1434   1.259       .  A
O1425     Al1432   1.870       .  S
O1427      C1434   1.278       .  A
O1428     Al1432   1.760       .  S
O1429      C1430   1.255       .  A
C1430      C1508   1.474       .  S
C1431      C1541   1.477       .  S
C1434      C1532   1.476       .  S
C1435      O1436   1.255       .  A
C1435      C1565   1.481       .  S
O1437      C1452   1.276       .  A
O1437     Al1445   1.980       .  S
C1438      O1448   1.278       .  A
C1438      O1439   1.260       .  A
C1438      C1592   1.486       .  S
O1439     Al1441   1.879       .  S
O1440      C1442   1.278       .  A
O1440     Al1441   1.987       .  S
Al1441     O1449   1.969       .  S
Al1441     O1451   1.870       .  S
Al1441     O1450   1.761       .  S
C1442      O1455   1.258       .  A
C1442      C1484   1.491       .  S
O1443      C1453   1.276       .  A
O1443     Al1445   1.983       .  S
O1444      C1457   1.278       .  A
O1444     Al1454   1.991       .  S
Al1445     O1458   1.860       .  S
Al1445     O1455   1.872       .  S
Al1445     O1450   1.763       .  S
O1446      C1453   1.256       .  A
O1446     Al1454   1.875       .  S
O1447      C1456   1.257       .  A
O1447     Al1454   1.871       .  S
O1448     Al1454   1.991       .  S
O1449      C1456   1.274       .  A
O1450     Al1454   1.764       .  S
O1451      C1452   1.255       .  A
C1452      C1577   1.473       .  S
C1453      C1520   1.474       .  S
C1456      C1505   1.477       .  S
C1457      O1458   1.255       .  A
C1457      C1493   1.482       .  S
O1459      C1474   1.277       .  A
C1460      O1470   1.277       .  A
C1460      O1461   1.255       .  A
C1460      C1613   1.478       .  S
O1461     Al1463   1.855       .  S
O1462      C1464   1.279       .  A
O1462     Al1463   1.991       .  S
Al1463     O1703   1.973       .  S
Al1463     O1473   1.871       .  S
Al1463     O1472   1.760       .  S
C1464      O1477   1.258       .  A
C1464      C1544   1.479       .  S
O1465      C1475   1.276       .  A
O1465     Al1467   1.990       .  S
O1466      C1479   1.280       .  A
O1466     Al1476   1.993       .  S
Al1467     O1480   1.865       .  S
Al1467     O1477   1.864       .  S
Al1467     O1472   1.762       .  S
O1468      C1475   1.252       .  A
O1468     Al1476   1.863       .  S
O1469      C1710   1.253       .  A
O1469     Al1476   1.858       .  S
O1470     Al1476   1.983       .  S
O1471      C1478   1.275       .  A
O1471     Al1695   1.976   1_554  S
O1472     Al1476   1.757       .  S
C1474      C1604   1.496       .  S
C1475      C1496   1.481       .  S
C1478      O1701   1.258   1_554  A
C1478      C1481   1.480       .  S
C1479      O1480   1.258       .  A
C1479      C1529   1.473       .  S
C1481      C1482   1.409       .  A
C1481      C1486   1.401       .  A
C1482      C1483   1.404       .  A
C1482      H1487   1.084       .  S
C1483      C1484   1.406       .  A
C1483      O1488   1.371       .  S
C1484      C1485   1.415       .  A
C1485      C1486   1.404       .  A
C1485      H1489   1.083       .  S
C1486      O1490   1.372       .  S
O1488      H1492   0.992       .  S
O1490      H1491   0.992       .  S
C1493      C1494   1.414       .  A
C1493      C1498   1.400       .  A
C1494      C1495   1.401       .  A
C1494      H1499   1.084       .  S
C1495      C1496   1.400       .  A
C1495      O1500   1.371       .  S
C1496      C1497   1.414       .  A
C1497      C1498   1.402       .  A
C1497      H1501   1.083       .  S
C1498      O1502   1.371       .  S
O1500      H1504   0.992       .  S
O1502      H1503   0.992       .  S
C1505      C1506   1.413       .  A
C1505      C1510   1.402       .  A
C1506      C1507   1.402       .  A
C1506      H1511   1.083       .  S
C1507      C1508   1.400       .  A
C1507      O1512   1.371       .  S
C1508      C1509   1.410       .  A
C1509      C1510   1.397       .  A
C1509      H1513   1.084       .  S
C1510      O1514   1.371       .  S
O1512      H1516   0.992       .  S
O1514      H1515   0.992       .  S
C1517      C1518   1.412       .  A
C1517      C1522   1.412       .  A
C1518      C1519   1.404       .  A
C1518      H1523   1.083       .  S
C1519      C1520   1.403       .  A
C1519      O1524   1.371       .  S
C1520      C1521   1.404       .  A
C1521      C1522   1.404       .  A
C1521      H1525   1.084       .  S
C1522      O1526   1.371       .  S
O1524      H1528   0.992       .  S
O1526      H1527   0.991       .  S
C1529      C1530   1.402       .  A
C1530      C1531   1.399       .  A
C1530      H1535   1.084       .  S
C1531      O1536   1.372       .  S
C1532      C1533   1.402   1_655  A
C1533      C1534   1.403       .  A
C1533      H1537   1.082       .  S
C1534      O1538   1.370       .  S
O1536      H1540   0.992       .  S
O1538      H1539   0.991       .  S
C1541      C1546   1.410       .  A
C1542      C1543   1.407       .  A
C1542      H1547   1.081       .  S
C1543      C1544   1.409       .  A
C1543      O1548   1.375       .  S
C1545      C1546   1.405       .  A
C1545      H1549   1.084       .  S
C1546      O1550   1.370       .  S
O1548      H1552   0.990       .  S
O1550      H1551   0.992       .  S
C1553      C1558   1.400       .  A
C1554      C1555   1.399       .  A
C1554      H1559   1.084       .  S
C1555      C1556   1.404       .  A
C1555      O1560   1.371       .  S
C1557      C1558   1.397       .  A
C1557      H1561   1.083       .  S
C1558      O1562   1.372       .  S
O1560      H1564   0.992       .  S
O1562      H1563   0.992       .  S
C1565      C1566   1.413       .  A
C1565      C1570   1.402       .  A
C1566      H1571   1.084       .  S
C1567      C1568   1.402       .  A
C1567      O1572   1.371       .  S
C1569      C1570   1.400       .  A
C1569      H1805   1.084       .  S
C1570      O1574   1.371       .  S
O1572      H1576   0.992       .  S
H1573      C1801   1.084   1_554  S
O1574      H1575   0.992       .  S
C1577      C1578   1.404       .  A
C1577      C1582   1.408       .  A
C1578      C1579   1.404       .  A
C1578      H1583   1.084       .  S
C1579      C1580   1.408       .  A
C1579      O1584   1.371       .  S
C1580      C1581   1.405       .  A
C1581      C1582   1.399       .  A
C1581      H1585   1.084       .  S
C1582      O1586   1.372       .  S
O1584      H1588   0.991       .  S
O1586      H1587   0.991       .  S
C1589      C1590   1.403       .  A
C1589      C1594   1.411       .  A
C1590      C1591   1.409       .  A
C1590      H1595   1.084       .  S
C1591      C1592   1.412       .  A
C1591      O1596   1.370       .  S
C1592      C1593   1.404       .  A
C1593      C1594   1.401       .  A
C1593      H1597   1.084       .  S
C1594      O1598   1.372       .  S
O1596      H1600   0.991       .  S
O1598      H1599   0.992       .  S
C1601      C1834   1.408   1_554  A
C1601      C1606   1.397       .  A
C1602      C1833   1.407       .  A
C1602      C1603   1.405       .  A
C1602      H1607   1.084       .  S
C1603      C1604   1.409       .  A
C1603      O1608   1.372       .  S
C1604      C1837   1.416       .  A
C1605      C1836   1.416   1_554  A
C1605      C1606   1.401       .  A
C1605      H1609   1.083       .  S
C1606      O1610   1.371       .  S
O1608      H1612   0.992       .  S
O1610      H1611   0.992       .  S
C1613      C1846   1.411       .  A
C1613      C1618   1.401       .  A
C1614      C1845   1.408   1_554  A
C1614      C1615   1.399       .  A
C1614      H1619   1.084       .  S
C1615      C1616   1.404       .  A
C1615      O1620   1.371       .  S
C1616      C1849   1.415   1_554  A
C1617      C1848   1.413       .  A
C1617      C1618   1.403       .  A
C1617      H1621   1.083       .  S
C1618      O1622   1.371       .  S
O1620      H1624   0.992       .  S
O1622      H1623   0.992       .  S
O1625      C1640   1.277       .  A
O1625     Al1633   1.988       .  S
C1626      O1636   1.275       .  A
C1626      O1627   1.257       .  A
C1626      C1848   1.480       .  S
O1627     Al1629   1.871       .  S
O1628      C1630   1.275       .  A
Al1629     O1637   1.986       .  S
Al1629     O1639   1.866       .  S
Al1629     O1638   1.765       .  S
C1630      C1800   1.467       .  S
O1631      C1641   1.281       .  A
O1632      C1645   1.276       .  A
O1632     Al1642   1.980       .  S
Al1633     O1646   1.873       .  S
Al1633     O1643   1.860       .  S
Al1633     O1638   1.762       .  S
O1634     Al1642   1.876       .  S
O1635      C1644   1.260       .  A
O1635     Al1642   1.875       .  S
O1636     Al1642   1.975       .  S
O1637      C1644   1.278       .  A
O1638     Al1642   1.763       .  S
O1639      C1640   1.255       .  A
C1640      C1833   1.477       .  S
C1641      C1821   1.480       .  S
C1644      C1812   1.482       .  S
C1645      O1646   1.258       .  A
C1645      C1788   1.488       .  S
O1647      C1662   1.275       .  A
O1647     Al1655   1.974       .  S
C1648      O1658   1.273       .  A
C1648      C1749   1.479       .  S
O1649     Al1651   1.868       .  S
O1650      C1652   1.277       .  A
O1650     Al1651   1.983       .  S
Al1651     O1659   1.985       .  S
Al1651     O1661   1.863       .  S
Al1651     O1660   1.761       .  S
C1652      O1665   1.256       .  A
C1652      C1785   1.480       .  S
O1653      C1663   1.280       .  A
O1654      C1667   1.275       .  A
O1654     Al1664   1.984       .  S
Al1655     O1668   1.869       .  S
Al1655     O1665   1.858       .  S
Al1655     O1660   1.761       .  S
O1656     Al1664   1.874       .  S
O1657      C1666   1.259       .  A
O1657     Al1664   1.872       .  S
O1659      C1666   1.278       .  A
O1660     Al1664   1.767       .  S
O1661      C1662   1.254       .  A
C1662      C1740   1.485       .  S
C1663      C1773   1.481       .  S
C1666      C1764   1.474       .  S
C1667      O1668   1.255       .  A
C1667      C1797   1.485       .  S
O1669      C1684   1.279       .  A
O1669     Al1677   1.994       .  S
C1670      O1680   1.281       .  A
C1670      O1671   1.258       .  A
C1670      C1824   1.488       .  S
O1671     Al1673   1.868       .  S
O1672      C1674   1.278       .  A
O1672     Al1673   1.994       .  S
Al1673     O1681   1.988       .  S
Al1673     O1683   1.866       .  S
Al1673     O1682   1.762       .  S
C1674      O1687   1.252       .  A
C1674      C1716   1.485       .  S
O1675      C1685   1.275       .  A
O1675     Al1677   1.978       .  S
O1676      C1689   1.279       .  A
O1676     Al1686   1.987       .  S
Al1677     O1690   1.859       .  S
Al1677     O1687   1.859       .  S
Al1677     O1682   1.759       .  S
O1678      C1685   1.255       .  A
O1678     Al1686   1.860       .  S
O1679      C1688   1.254       .  A
O1679     Al1686   1.862       .  S
O1680     Al1686   2.004       .  S
O1681      C1688   1.277       .  A
O1682     Al1686   1.755       .  S
O1683      C1684   1.257       .  A
C1684      C1809   1.475       .  S
C1685      C1752   1.477       .  S
C1688      C1737   1.475       .  S
C1689      O1690   1.256       .  A
C1689      C1725   1.483       .  S
O1691      C1706   1.276       .  A
C1692      O1702   1.275       .  A
C1692      O1693   1.255       .  A
C1692      C1845   1.472       .  S
O1693     Al1695   1.861       .  S
O1694      C1696   1.278       .  A
O1694     Al1695   1.990       .  S
Al1695     O1705   1.866       .  S
Al1695     O1704   1.761       .  S
C1696      O1709   1.257       .  A
C1696      C1776   1.475       .  S
O1697      C1707   1.274       .  A
O1697     Al1699   1.983       .  S
O1698      C1711   1.280       .  A
O1698     Al1708   1.994       .  S
Al1699     O1712   1.871       .  S
Al1699     O1709   1.871       .  S
Al1699     O1704   1.767       .  S
O1700      C1707   1.254       .  A
O1700     Al1708   1.868       .  S
O1701     Al1708   1.869       .  S
O1702     Al1708   1.973       .  S
O1703      C1710   1.274       .  A
O1704     Al1708   1.762       .  S
C1706      C1836   1.485       .  S
C1707      C1728   1.478       .  S
C1710      C1713   1.470       .  S
C1711      O1712   1.260       .  A
C1711      C1761   1.487       .  S
C1713      C1714   1.409       .  A
C1713      C1718   1.397       .  A
C1714      C1715   1.401       .  A
C1714      H1719   1.084       .  S
C1715      C1716   1.403       .  A
C1715      O1720   1.371       .  S
C1716      C1717   1.417       .  A
C1717      C1718   1.399       .  A
C1717      H1721   1.083       .  S
C1718      O1722   1.372       .  S
O1720      H1724   0.991       .  S
O1722      H1723   0.992       .  S
C1725      C1726   1.415       .  A
C1725      C1730   1.401       .  A
C1726      C1727   1.404       .  A
C1726      H1731   1.084       .  S
C1727      C1728   1.400       .  A
C1727      O1732   1.371       .  S
C1728      C1729   1.410       .  A
C1729      C1730   1.399       .  A
C1729      H1733   1.083       .  S
C1730      O1734   1.371       .  S
O1732      H1736   0.992       .  S
O1734      H1735   0.992       .  S
C1737      C1738   1.410       .  A
C1737      C1742   1.398       .  A
C1738      C1739   1.400       .  A
C1738      H1743   1.084       .  S
C1739      C1740   1.403       .  A
C1739      O1744   1.371       .  S
C1740      C1741   1.416       .  A
C1741      C1742   1.402       .  A
C1741      H1745   1.083       .  S
C1742      O1746   1.371       .  S
O1744      H1748   0.992       .  S
O1746      H1747   0.992       .  S
C1749      C1750   1.413       .  A
C1749      C1754   1.401       .  A
C1750      C1751   1.402       .  A
C1750      H1755   1.084       .  S
C1751      C1752   1.401       .  A
C1751      O1756   1.371       .  S
C1752      C1753   1.411       .  A
C1753      C1754   1.399       .  A
C1753      H1757   1.084       .  S
C1754      O1758   1.371       .  S
O1756      H1760   0.992       .  S
O1758      H1759   0.992       .  S
C1761      C1762   1.408       .  A
C1762      C1763   1.401       .  A
C1762      H1767   1.084       .  S
C1763      O1768   1.372       .  S
C1764      C1765   1.405   1_655  A
C1765      C1766   1.407       .  A
C1765      H1769   1.084       .  S
C1766      O1770   1.371       .  S
O1768      H1772   0.992       .  S
O1770      H1771   0.991       .  S
C1773      C1778   1.411       .  A
C1774      C1775   1.400       .  A
C1774      H1779   1.084       .  S
C1775      C1776   1.407       .  A
C1775      O1780   1.372       .  S
C1777      C1778   1.407       .  A
C1777      H1781   1.084       .  S
C1778      O1782   1.371       .  S
O1780      H1784   0.991       .  S
O1782      H1783   0.991       .  S
C1785      C1790   1.401       .  A
C1786      C1787   1.402       .  A
C1786      H1791   1.084       .  S
C1787      C1788   1.405       .  A
C1787      O1792   1.371       .  S
C1789      C1790   1.403       .  A
C1789      H1793   1.083       .  S
C1790      O1794   1.371       .  S
O1792      H1796   0.992       .  S
O1794      H1795   0.992       .  S
C1797      C1798   1.414       .  A
C1797      C1802   1.405       .  A
C1798      H1803   1.083       .  S
C1799      C1800   1.397       .  A
C1799      O1804   1.371       .  S
C1801      C1802   1.403       .  A
C1802      O1806   1.371       .  S
O1804      H1808   0.991       .  S
O1806      H1807   0.992       .  S
C1809      C1810   1.403       .  A
C1809      C1814   1.408       .  A
C1810      C1811   1.407       .  A
C1810      H1815   1.084       .  S
C1811      C1812   1.411       .  A
C1811      O1816   1.371       .  S
C1812      C1813   1.405       .  A
C1813      C1814   1.400       .  A
C1813      H1817   1.084       .  S
C1814      O1818   1.372       .  S
O1816      H1820   0.992       .  S
O1818      H1819   0.991       .  S
C1821      C1822   1.407       .  A
C1821      C1826   1.407       .  A
C1822      C1823   1.410       .  A
C1822      H1827   1.084       .  S
C1823      C1824   1.412       .  A
C1823      O1828   1.371       .  S
C1824      C1825   1.407       .  A
C1825      C1826   1.400       .  A
C1825      H1829   1.084       .  S
C1826      O1830   1.372       .  S
O1828      H1832   0.992       .  S
O1830      H1831   0.992       .  S
C1833      C1838   1.400       .  A
C1834      C1835   1.401       .  A
C1834      H1839   1.084       .  S
C1835      C1836   1.405       .  A
C1835      O1840   1.371       .  S
C1837      C1838   1.404       .  A
C1837      H1841   1.083       .  S
C1838      O1842   1.371       .  S
O1840      H1844   0.992       .  S
O1842      H1843   0.992       .  S
C1845      C1850   1.399       .  A
C1846      C1847   1.399       .  A
C1846      H1851   1.084       .  S
C1847      C1848   1.402       .  A
C1847      O1852   1.371       .  S
C1849      C1850   1.401       .  A
C1849      H1853   1.083       .  S
C1850      O1854   1.371       .  S
O1852      H1856   0.992       .  S
O1854      H1855   0.992       .  S
