geometry optimzed in LAMMPS
_audit_creation_date              2020-11-30 
_audit_creation_method            'lammps2cif' 
_symmetry_space_group_name_H-M    'P1' 
_symmetry_Int_Tables_number       1 
_symmetry_cell_setting            triclinic 
loop_ 
_symmetry_equiv_pos_as_xyz 
  x,y,z 
_cell_length_a                    53.90510662 
_cell_length_b                    53.900554566036035 
_cell_length_c                    53.90491391869991 
_cell_angle_alpha                 90.00510179613663 
_cell_angle_beta                  90.00234076033853 
_cell_angle_gamma                 90.00512984352603 
loop_ 
_atom_site_label 
_atom_site_type_symbol 
_atom_site_fract_x 
_atom_site_fract_y 
_atom_site_fract_z 
_atom_site_charge 
O1          O  0.52606894  0.06755661  0.47351177    -0.70700
O2          O  0.47346573  0.06756356  0.52613207    -0.71700
O3          O  0.47345655  0.06763833  0.47351652    -0.60300
O4          O  0.52608188  0.06749168  0.52613158    -0.68700
O5          O  0.52640839  0.10870604  0.52645302    -0.68300
O6          O  0.47325578  0.10885432  0.47331007    -0.59500
O7          O  0.47325810  0.10877874  0.52645803    -0.72000
O8          O  0.52640006  0.10877171  0.47329860    -0.70800
Cu9        Cu  0.49976702  0.06618293  0.49982188     1.04600
Cu10       Cu  0.49983389  0.11028755  0.49988299     1.04300
C11         C  0.53449620  0.08802927  0.46512742     0.95500
C12         C  0.46508996  0.08803840  0.53456258     0.94600
C13         C  0.46508656  0.08813858  0.46514237     0.86800
C14         C  0.53451433  0.08794537  0.53456338     0.93100
O15         O  0.15467463  0.38623567  0.52645436    -0.70700
O16         O  0.15478749  0.43900950  0.47398051    -0.71700
O17         O  0.15471165  0.38638556  0.47384261    -0.60300
O18         O  0.15474637  0.43884964  0.52661321    -0.68700
O19         O  0.19595861  0.43905648  0.52691245    -0.68300
O20         O  0.19592365  0.38606372  0.47360901    -0.59500
O21         O  0.19599914  0.43921747  0.47374894    -0.72000
O22         O  0.19588581  0.38591748  0.52674679    -0.70800
Cu23       Cu  0.15334960  0.41262606  0.50021944     1.04600
Cu24       Cu  0.19745059  0.41256629  0.50025326     1.04300
C25         C  0.17513275  0.37778033  0.53484452     0.95500
C26         C  0.17528074  0.44739952  0.46560816     0.94600
C27         C  0.17518011  0.37796537  0.46544556     0.86800
C28         C  0.17522695  0.44717728  0.53507843     0.93100
O29         O  0.52659771  0.71638595  0.52664222    -0.70700
O30         O  0.47345150  0.71654887  0.47349350    -0.71700
O31         O  0.52660441  0.71646288  0.47350182    -0.60300
O32         O  0.47345488  0.71646664  0.52664223    -0.68700
O33         O  0.47378454  0.75768199  0.52644057    -0.68300
O34         O  0.52640518  0.75767824  0.47382832    -0.59500
O35         O  0.47378484  0.75776327  0.47382365    -0.72000
O36         O  0.52639549  0.75760266  0.52643707    -0.70800
Cu37       Cu  0.50002393  0.71495644  0.50006657     1.04600
Cu38       Cu  0.50009423  0.75906161  0.50013375     1.04300
C39         C  0.53476608  0.73710273  0.53480801     0.95500
C40         C  0.46534626  0.73731322  0.46539075     0.94600
C41         C  0.53478175  0.73720087  0.46540274     0.86800
C42         C  0.46535296  0.73720574  0.53481387     0.93100
O43         O  0.84512886  0.38647975  0.52627670    -0.70700
O44         O  0.84519098  0.43901738  0.47357784    -0.71700
O45         O  0.84521239  0.43910966  0.52618206    -0.60300
O46         O  0.84509728  0.38639930  0.47365150    -0.68700
O47         O  0.80388463  0.38620439  0.47340508    -0.68300
O48         O  0.80400061  0.43944050  0.52645836    -0.59500
O49         O  0.80397953  0.43935134  0.47332703    -0.72000
O50         O  0.80391746  0.38627993  0.52656102    -0.70800
Cu51       Cu  0.84653759  0.41274566  0.49992358     1.04600
Cu52       Cu  0.80243647  0.41281748  0.49994101     1.04300
C53         C  0.82464543  0.37812303  0.53470432     0.95500
C54         C  0.82472833  0.44744820  0.46517653     0.94600
C55         C  0.82475392  0.44757812  0.53455607     0.86800
C56         C  0.82460285  0.37803164  0.46525813     0.93100
O57         O  0.52652077  0.43882203  0.15481113    -0.70700
O58         O  0.47375419  0.38635465  0.15479235    -0.71700
O59         O  0.47389098  0.43897861  0.15486509    -0.60300
O60         O  0.52636462  0.38620901  0.15474168    -0.68700
O61         O  0.52666831  0.38589251  0.19595308    -0.68300
O62         O  0.47366917  0.43918957  0.19607709    -0.59500
O63         O  0.47353111  0.38603492  0.19600459    -0.72000
O64         O  0.52683033  0.43903140  0.19602350    -0.70800
Cu65       Cu  0.50012890  0.41259674  0.15342219     1.04600
Cu66       Cu  0.50017387  0.41253942  0.19752352     1.04300
C67         C  0.53498952  0.44715234  0.17528918     0.95500
C68         C  0.46536351  0.37793442  0.17526347     0.94600
C69         C  0.46552533  0.44737135  0.17535980     0.86800
C70         C  0.53476096  0.37775563  0.17519791     0.93100
O71         O  0.52648574  0.38625812  0.80394871    -0.70700
O72         O  0.47324716  0.43932009  0.80401938    -0.71700
O73         O  0.52637776  0.43941729  0.80402191    -0.60300
O74         O  0.47333082  0.38617548  0.80393878    -0.68700
O75         O  0.47359383  0.38638075  0.84515158    -0.68300
O76         O  0.52611649  0.43909467  0.84523413    -0.59500
O77         O  0.47351267  0.43899720  0.84523111    -0.72000
O78         O  0.52621833  0.38646589  0.84516048    -0.70800
Cu79       Cu  0.49986310  0.41279088  0.80247315     1.04600
Cu80       Cu  0.49986259  0.41272911  0.84657471     1.04300
C81         C  0.53463838  0.37810650  0.82467483     0.95500
C82         C  0.46510200  0.44742007  0.82476880     0.94600
C83         C  0.53448201  0.44755962  0.82477091     0.86800
C84         C  0.46519253  0.37800812  0.82466264     0.93100
O85         O  0.02635051  0.60875536  0.97327320    -0.70700
O86         O  0.97319643  0.60874462  0.02642035    -0.71700
O87         O  0.02635833  0.60887952  0.02643004    -0.60300
O88         O  0.97321018  0.60864005  0.97328352    -0.68700
O89         O  0.97356234  0.56742606  0.97362740    -0.68300
O90         O  0.02618900  0.56766384  0.02625301    -0.59500
O91         O  0.97356190  0.56752956  0.02623519    -0.72000
O92         O  0.02617316  0.56754018  0.97363029    -0.70800
Cu93       Cu  0.99977872  0.61026450  0.99985219     1.04600
Cu94       Cu  0.99987788  0.56616013  0.99994272     1.04300
C95         C  0.03451567  0.58801444  0.96516681     0.95500
C96         C  0.96508943  0.58800047  0.03457677     0.94600
C97         C  0.03454777  0.58817933  0.03461026     0.86800
C98         C  0.96511490  0.58786774  0.96518674     0.93100
O99         O  0.69616504  0.88605527  0.97350432    -0.70700
O100        O  0.69601183  0.93916360  0.02670227    -0.71700
O101        O  0.69609525  0.88602043  0.02665476    -0.60300
O102        O  0.69609287  0.93920916  0.97354844    -0.68700
O103        O  0.65488145  0.93888244  0.97375273    -0.68300
O104        O  0.65488348  0.88622069  0.02633352    -0.59500
O105        O  0.65480066  0.93883362  0.02637330    -0.72000
O106        O  0.65495225  0.88626288  0.97371648    -0.70800
Cu107      Cu  0.69760091  0.91261448  0.00010297     1.04600
Cu108      Cu  0.65349980  0.91254774  0.00004029     1.04300
C109        C  0.67544767  0.87789456  0.96533487     0.95500
C110        C  0.67524941  0.94725342  0.03482286     0.94600
C111        C  0.67535977  0.87785158  0.03476527     0.86800
C112        C  0.67535627  0.94732358  0.96538726     0.93100
O113        O  0.02625286  0.25782495  0.97370179    -0.70700
O114        O  0.97362996  0.25782346  0.02631745    -0.71700
O115        O  0.02623976  0.25789165  0.02631507    -0.60300
O116        O  0.97362785  0.25776378  0.97368800    -0.68700
O117        O  0.97341030  0.21654855  0.97346881    -0.68300
O118        O  0.02655631  0.21667722  0.02663060    -0.59500
O119        O  0.97341745  0.21660832  0.02662925    -0.72000
O120        O  0.02656571  0.21660982  0.97348763    -0.70800
Cu121      Cu  0.99993309  0.25920600  0.00000127     1.04600
Cu122      Cu  0.99998589  0.21510173  0.00005265     1.04300
C123        C  0.03469418  0.23734784  0.96533979     0.95500
C124        C  0.96527147  0.23734580  0.03476094     0.94600
C125        C  0.03466555  0.23743817  0.03474562     0.86800
C126        C  0.96525136  0.23726766  0.96530357     0.93100
O127        O  0.30373739  0.93926306  0.02657760    -0.70700
O128        O  0.30385068  0.88607181  0.97346642    -0.71700
O129        O  0.30383349  0.88610307  0.02661321    -0.60300
O130        O  0.30375890  0.93922889  0.97343562    -0.68700
O131        O  0.34497091  0.93903487  0.97372083    -0.68300
O132        O  0.34504455  0.88644511  0.02636321    -0.59500
O133        O  0.34506199  0.88641254  0.97374962    -0.72000
O134        O  0.34494979  0.93907171  0.02633049    -0.70800
Cu135      Cu  0.30228539  0.91266323  0.00002295     1.04600
Cu136      Cu  0.34638630  0.91274305  0.00004185     1.04300
C137        C  0.32445753  0.94745148  0.03471112     0.95500
C138        C  0.32460558  0.87796414  0.96534568     0.94600
C139        C  0.32458286  0.87800490  0.03475970     0.86800
C140        C  0.32448685  0.94740266  0.96530883     0.93100
O141        O  0.97366203  0.88626860  0.65500722    -0.70700
O142        O  0.02631923  0.93884177  0.65490055    -0.71700
O143        O  0.02628072  0.88622956  0.65496477    -0.60300
O144        O  0.97369718  0.93888748  0.65495124    -0.68700
O145        O  0.97347011  0.93920247  0.69616269    -0.68300
O146        O  0.02658179  0.88601565  0.69617668    -0.59500
O147        O  0.02662580  0.93915828  0.69611209    -0.72000
O148        O  0.97342922  0.88604926  0.69621989    -0.70800
Cu149      Cu  0.99998689  0.91255512  0.65357637     1.04600
Cu150      Cu  0.00002651  0.91260828  0.69767752     1.04300
C151        C  0.96526885  0.87789550  0.67549620     0.95500
C152        C  0.03475849  0.94725419  0.67535686     0.94600
C153        C  0.03470415  0.87785511  0.67544224     0.86800
C154        C  0.96531838  0.94732101  0.67542366     0.93100
O155        O  0.97335288  0.93920333  0.30385369    -0.70700
O156        O  0.02654686  0.88609296  0.30393290    -0.71700
O157        O  0.97340144  0.88604352  0.30394016    -0.60300
O158        O  0.02649572  0.93925517  0.30384506    -0.68700
O159        O  0.02623917  0.93905774  0.34505734    -0.68300
O160        O  0.97367614  0.88638021  0.34515159    -0.59500
O161        O  0.02628890  0.88642895  0.34514396    -0.72000
O162        O  0.97362851  0.93900524  0.34506570    -0.70800
Cu163      Cu  0.99994916  0.91264575  0.30238326     1.04600
Cu164      Cu  0.99995859  0.91272012  0.34648405     1.04300
C165        C  0.96521899  0.94737339  0.32458041     0.95500
C166        C  0.03469051  0.87799246  0.32468253     0.94600
C167        C  0.96528142  0.87792849  0.32469275     0.86800
C168        C  0.03462182  0.94744368  0.32456841     0.93100
N169        N  0.68062004  0.76472986  0.68063506    -0.25000
N170        N  0.67052904  0.74471003  0.67056067    -0.32900
C171        C  0.68089846  0.72448976  0.68094882     0.03300
C172        C  0.69816073  0.73233041  0.69820599     0.09300
C173        C  0.69756235  0.75783178  0.69758511    -0.03800
H174        H  0.67621342  0.70553619  0.67627775     0.10000
H175        H  0.70858353  0.77049641  0.70859426     0.11200
Cu176      Cu  0.64309795  0.74555906  0.64312129     0.44200
Cu177      Cu  0.67154553  0.80078065  0.67152478     0.42000
Cu178      Cu  0.62505586  0.80759940  0.62499516     0.43900
N179        N  0.61617297  0.75294454  0.61617821    -0.32400
N180        N  0.60985926  0.77580327  0.60983168    -0.26700
C181        C  0.59225434  0.77491281  0.59222686    -0.02800
C182        C  0.58717468  0.75038882  0.58718157     0.09400
C183        C  0.60259615  0.73682344  0.60262326     0.03200
H184        H  0.58377863  0.79100543  0.58373092     0.10900
H185        H  0.60386957  0.71683440  0.60392745     0.10000
N186        N  0.64213477  0.83739348  0.64207080    -0.33900
N187        N  0.65937355  0.83494187  0.65932579    -0.26100
C188        C  0.66680699  0.85757968  0.66676945    -0.01300
C189        C  0.65351359  0.87492130  0.65346515     0.07300
C190        C  0.63807171  0.86164159  0.63800698     0.05400
H191        H  0.68077404  0.86107162  0.68075856     0.10500
H192        H  0.62486794  0.86900155  0.62480004     0.09400
N193        N  0.68036059  0.06049051  0.68048488    -0.25000
N194        N  0.67025266  0.08048570  0.67038679    -0.32900
C195        C  0.68061275  0.10073026  0.68075070     0.03300
C196        C  0.69788641  0.09292999  0.69801688     0.09300
C197        C  0.69730141  0.06742746  0.69742291    -0.03800
H198        H  0.67591508  0.11967290  0.67605673     0.10000
H199        H  0.70833352  0.05478660  0.70844311     0.11200
Cu200      Cu  0.64281094  0.07954304  0.64294345     0.44200
Cu201      Cu  0.67131096  0.02441851  0.67141668     0.42000
Cu202      Cu  0.62480003  0.01744407  0.62490492     0.43900
N203        N  0.61588469  0.07207972  0.61600290    -0.32400
N204        N  0.60958119  0.04920556  0.60969037    -0.26700
C205        C  0.59198101  0.05005459  0.59207578    -0.02800
C206        C  0.58689258  0.07456778  0.58698689     0.09400
C207        C  0.60230527  0.08816740  0.60241493     0.03200
H208        H  0.58351768  0.03394165  0.58359962     0.10900
H209        H  0.60357325  0.10815939  0.60368451     0.10000
N210        N  0.64193888  0.98770856  0.64202147    -0.33900
N211        N  0.65918288  0.99021984  0.65926441    -0.26100
C212        C  0.66666924  0.96760807  0.66672596    -0.01300
C213        C  0.65340558  0.95021982  0.65344730     0.07300
C214        C  0.63792573  0.96344547  0.63798445     0.05400
H215        H  0.68065753  0.96416507  0.68070474     0.10500
H216        H  0.62473600  0.95603862  0.62478671     0.09400
N217        N  0.85210627  0.59379195  0.68012407    -0.25000
N218        N  0.83212441  0.58363237  0.67004627    -0.32900
C219        C  0.81186883  0.59381894  0.68054771     0.03300
C220        C  0.81964612  0.61103026  0.69788759     0.09300
C221        C  0.84514786  0.61059659  0.69718927    -0.03800
H222        H  0.79293423  0.58903795  0.67590413     0.10000
H223        H  0.85777228  0.62162911  0.70823274     0.11200
Cu224      Cu  0.83307877  0.55632964  0.64247348     0.44200
Cu225      Cu  0.88818686  0.58494779  0.67089931     0.42000
Cu226      Cu  0.89515502  0.53911425  0.62371148     0.43900
N227        N  0.84054517  0.52957861  0.61537081    -0.32400
N228        N  0.86341615  0.52361215  0.60874368    -0.26700
C229        C  0.86257993  0.50597508  0.59116456    -0.02800
C230        C  0.83807807  0.50050788  0.58643325     0.09400
C231        C  0.82447100  0.51573516  0.60203239     0.03200
H232        H  0.87869494  0.49768973  0.58252501     0.10900
H233        H  0.80448539  0.51666112  0.60362520     0.10000
N234        N  0.92488623  0.55597584  0.64110588    -0.33900
N235        N  0.92238182  0.57293394  0.65863247    -0.26100
C236        C  0.94499439  0.58009391  0.66640874    -0.01300
C237        C  0.96237393  0.56692349  0.65303058     0.07300
C238        C  0.94914305  0.55182929  0.63719197     0.05400
H239        H  0.94844289  0.59372755  0.68073509     0.10500
H240        H  0.95654065  0.53872720  0.62390302     0.09400
N241        N  0.14788762  0.59275227  0.68127571    -0.25000
N242        N  0.16788251  0.58267192  0.67114982    -0.32900
C243        C  0.18812334  0.59319313  0.68135102     0.03300
C244        C  0.18032183  0.61054621  0.69853619     0.09300
C245        C  0.15482226  0.60983671  0.69807132    -0.03800
H246        H  0.20706455  0.58854760  0.67660418     0.10000
H247        H  0.14218241  0.62087995  0.70908257     0.11200
Cu248      Cu  0.16696068  0.55505503  0.64388605     0.44200
Cu249      Cu  0.11181927  0.58350299  0.67241209     0.42000
Cu250      Cu  0.10488270  0.53626295  0.62665055     0.43900
N251        N  0.15950215  0.52791462  0.61716450    -0.32400
N252        N  0.13663254  0.52127599  0.61119774    -0.26700
C253        C  0.13747197  0.50369261  0.59356553    -0.02800
C254        C  0.16197416  0.49896981  0.58809962     0.09400
C255        C  0.17557874  0.51457890  0.60332413     0.03200
H256        H  0.12135792  0.49505649  0.58526995     0.10900
H257        H  0.19556365  0.51619068  0.60423945     0.10000
N258        N  0.07513531  0.55370407  0.64342712    -0.33900
N259        N  0.07763100  0.57125065  0.66036593    -0.26100
C260        C  0.05501625  0.57905830  0.66747711    -0.01300
C261        C  0.03764325  0.56568114  0.65429300     0.07300
C262        C  0.05088069  0.54980857  0.63924252     0.05400
H263        H  0.05156207  0.59340259  0.68108959     0.10500
H264        H  0.04348931  0.53650590  0.62614866     0.09400
N265        N  0.68001691  0.59379240  0.85214728    -0.25000
N266        N  0.66993849  0.58364100  0.83216157    -0.32900
C267        C  0.68044038  0.59383443  0.81190981     0.03300
C268        C  0.69778102  0.61104151  0.81969401     0.09300
C269        C  0.69708294  0.61059845  0.84519535    -0.03800
H270        H  0.67579897  0.58905849  0.79297335     0.10000
H271        H  0.70812945  0.62162311  0.85782394     0.11200
Cu272      Cu  0.64237104  0.55633412  0.83310517     0.44200
Cu273      Cu  0.67079913  0.58493106  0.88822472     0.42000
Cu274      Cu  0.62363296  0.53907800  0.89517814     0.43900
N275        N  0.61528098  0.52957005  0.84056463    -0.32400
N276        N  0.60866316  0.52358809  0.86343431    -0.26700
C277        C  0.59109019  0.50594541  0.86259324    -0.02800
C278        C  0.58635359  0.50049087  0.83808962     0.09400
C279        C  0.60194277  0.51573134  0.82448639     0.03200
H280        H  0.58245791  0.49764823  0.87870609     0.10900
H281        H  0.60352872  0.51666979  0.80450073     0.10000
N282        N  0.64102240  0.55593359  0.92491563    -0.33900
N283        N  0.65854152  0.57289994  0.92241622    -0.26100
C284        C  0.66631287  0.58005876  0.94503083    -0.01300
C285        C  0.65293937  0.56687878  0.96240669     0.07300
C286        C  0.63710839  0.55178031  0.94917140     0.05400
H287        H  0.68063048  0.59370055  0.94848320     0.10500
H288        H  0.62382219  0.53867339  0.95656529     0.09400
N289        N  0.68113201  0.59277842  0.14792206    -0.25000
N290        N  0.67100559  0.58269758  0.16791648    -0.32900
C291        C  0.68120606  0.59321775  0.18815837     0.03300
C292        C  0.69839159  0.61057154  0.18035894     0.09300
C293        C  0.69792778  0.60986258  0.15485854    -0.03800
H294        H  0.67646099  0.58856849  0.20709919     0.10000
H295        H  0.70894250  0.62090346  0.14221963     0.11200
Cu296      Cu  0.64374822  0.55507453  0.16699291     0.44200
Cu297      Cu  0.67227257  0.58352015  0.11185281     0.42000
Cu298      Cu  0.62654067  0.53624295  0.10492016     0.43900
N299        N  0.61704198  0.52791771  0.15954022    -0.32400
N300        N  0.61108606  0.52126305  0.13667241    -0.26700
C301        C  0.59346332  0.50367041  0.13751629    -0.02800
C302        C  0.58799253  0.49895843  0.16201957     0.09400
C303        C  0.60320394  0.51458361  0.17561997     0.03200
H304        H  0.58517739  0.49502074  0.12140453     0.10900
H305        H  0.60411230  0.51620706  0.19560428     0.10000
N306        N  0.64331353  0.55368652  0.07517215    -0.33900
N307        N  0.66023906  0.57124644  0.07766563    -0.26100
C308        C  0.66735012  0.57905022  0.05504927    -0.01300
C309        C  0.65418020  0.56565665  0.03767792     0.07300
C310        C  0.63913790  0.54977859  0.05091786     0.05400
H311        H  0.68095361  0.59340246  0.05159274     0.10500
H312        H  0.62605580  0.53646335  0.04352835     0.09400
N313        N  0.85232071  0.59336939  0.31934854    -0.25000
N314        N  0.83232473  0.58328446  0.32947005    -0.32900
C315        C  0.81208243  0.59364000  0.31910880     0.03300
C316        C  0.81987904  0.61088774  0.30181709     0.09300
C317        C  0.84538255  0.61029461  0.30239449    -0.03800
H318        H  0.79314157  0.58894549  0.32381177     0.10000
H319        H  0.85802131  0.62129828  0.29134201     0.11200
Cu320      Cu  0.83323877  0.55584783  0.35691273     0.44200
Cu321      Cu  0.88839065  0.58426458  0.32838605     0.42000
Cu322      Cu  0.89528365  0.53769940  0.37488029     0.43900
N323        N  0.84064685  0.52888729  0.38382600    -0.32400
N324        N  0.86350875  0.52253379  0.39011738    -0.26700
C325        C  0.86263262  0.50491334  0.40770900    -0.02800
C326        C  0.83811386  0.49986184  0.41280242     0.09400
C327        C  0.82453891  0.51531974  0.39740304     0.03200
H328        H  0.87873098  0.49640521  0.41616076     0.10900
H329        H  0.80455062  0.51662153  0.39614056     0.10000
N330        N  0.92504213  0.55478474  0.35775087    -0.33900
N331        N  0.92256721  0.57204596  0.34052059    -0.26100
C332        C  0.94519546  0.57951152  0.33308530    -0.01300
C333        C  0.96255401  0.56621622  0.34636691     0.07300
C334        C  0.94929393  0.55074029  0.36180382     0.05400
H335        H  0.94866992  0.59352452  0.31913921     0.10500
H336        H  0.95667020  0.53754888  0.37501394     0.09400
N337        N  0.14812458  0.59317562  0.31954842    -0.25000
N338        N  0.16812529  0.58302751  0.32959564    -0.32900
C339        C  0.18835947  0.59336312  0.31918956     0.03300
C340        C  0.18054362  0.61066155  0.30195245     0.09300
C341        C  0.15504562  0.61011494  0.30260561    -0.03800
H342        H  0.20730510  0.58865087  0.32385288     0.10000
H343        H  0.14239573  0.62118971  0.29163861     0.11200
Cu344      Cu  0.16719705  0.55560938  0.35707501     0.44200
Cu345      Cu  0.11205680  0.58423042  0.32870573     0.42000
Cu346      Cu  0.10506532  0.53777894  0.37521375     0.43900
N347        N  0.15969227  0.52875636  0.38408863    -0.32400
N348        N  0.13680801  0.52252626  0.39042889    -0.26700
C349        C  0.13762134  0.50496387  0.40808097    -0.02800
C350        C  0.16211967  0.49982068  0.41317210     0.09400
C351        C  0.17575067  0.51516291  0.39770085     0.03200
H352        H  0.12149193  0.49655950  0.41657899     0.10900
H353        H  0.19574349  0.51637048  0.39641598     0.10000
N354        N  0.07532794  0.55492623  0.35811208    -0.33900
N355        N  0.07784752  0.57216424  0.34086718    -0.26100
C356        C  0.05524190  0.57963150  0.33337097    -0.01300
C357        C  0.03784734  0.56636005  0.34662949     0.07300
C358        C  0.05106487  0.55089629  0.36211643     0.05400
H359        H  0.05180737  0.59358909  0.31935989     0.10500
H360        H  0.04365235  0.53768511  0.37528722     0.09400
N361        N  0.68082282  0.76468604  0.31969334    -0.25000
N362        N  0.67063231  0.74468152  0.32969366    -0.32900
C363        C  0.68091640  0.72444646  0.31924198     0.03300
C364        C  0.69822716  0.73226048  0.30202086     0.09300
C365        C  0.69774322  0.75776295  0.30273078    -0.03800
H366        H  0.67614832  0.70550005  0.32385278     0.10000
H367        H  0.70883289  0.77041234  0.29177662     0.11200
Cu368      Cu  0.64319431  0.74558170  0.35713781     0.44200
Cu369      Cu  0.67189366  0.80075249  0.32890620     0.42000
Cu370      Cu  0.62531626  0.80764794  0.37535015     0.43900
N371        N  0.61629288  0.75300925  0.38410755    -0.32400
N372        N  0.61004281  0.77587809  0.39048529    -0.26700
C373        C  0.59243381  0.77501801  0.40808741    -0.02800
C374        C  0.58728314  0.75050294  0.41310169     0.09400
C375        C  0.60266873  0.73691213  0.39764185     0.03200
H376        H  0.58399793  0.79112552  0.41659730     0.10900
H377        H  0.60388057  0.71692114  0.39630706     0.10000
N378        N  0.64242268  0.83741165  0.35825556    -0.33900
N379        N  0.65969948  0.83493348  0.34104295    -0.26100
C380        C  0.66706058  0.85756028  0.33349821    -0.01300
C381        C  0.65368054  0.87492189  0.34669175     0.07300
C382        C  0.63826278  0.86166541  0.36218987     0.05400
H383        H  0.68099550  0.86103110  0.31947371     0.10500
H384        H  0.62496977  0.86904455  0.37529654     0.09400
N385        N  0.68035882  0.06044788  0.31925885    -0.25000
N386        N  0.67033747  0.08045035  0.32943135    -0.32900
C387        C  0.68079950  0.10068757  0.31916245     0.03300
C388        C  0.69805080  0.09287750  0.30187989     0.09300
C389        C  0.69734698  0.06737400  0.30236468    -0.03800
H390        H  0.67616117  0.11963307  0.32390746     0.10000
H391        H  0.70830537  0.05472675  0.29127674     0.11200
Cu392      Cu  0.64281728  0.07953701  0.35679069     0.44200
Cu393      Cu  0.67107374  0.02438621  0.32813204     0.42000
Cu394      Cu  0.62426925  0.01747741  0.37437393     0.43900
N395        N  0.61574608  0.07212272  0.38359213    -0.32400
N396        N  0.60923357  0.04926065  0.38972817    -0.26700
C397        C  0.59160866  0.05013951  0.40731478    -0.02800
C398        C  0.58672181  0.07465979  0.41256833     0.09400
C399        C  0.60228037  0.08823265  0.39726808     0.03200
H400        H  0.58300840  0.03404167  0.41567719     0.10900
H401        H  0.60373684  0.10822102  0.39615720     0.10000
N402        N  0.64140963  0.98772102  0.35729164    -0.33900
N403        N  0.65876430  0.99020724  0.34015788    -0.26100
C404        C  0.66632845  0.96758430  0.33280599    -0.01300
C405        C  0.65299852  0.95021541  0.34603910     0.07300
C406        C  0.63740119  0.96346391  0.36136437     0.05400
H407        H  0.68046663  0.96412091  0.31898453     0.10500
H408        H  0.62418967  0.95607690  0.37454876     0.09400
N409        N  0.85185879  0.23207451  0.68048402    -0.25000
N410        N  0.83186515  0.24224034  0.67044148    -0.32900
C411        C  0.81162327  0.23186772  0.68079471     0.03300
C412        C  0.81942518  0.21452547  0.69799360     0.09300
C413        C  0.84492495  0.21508529  0.69737264    -0.03800
H414        H  0.79268133  0.23660296  0.67613962     0.10000
H415        H  0.85756671  0.20400362  0.70834202     0.11200
Cu416      Cu  0.83281349  0.26977348  0.64308044     0.44200
Cu417      Cu  0.88792883  0.24110403  0.67141398     0.42000
Cu418      Cu  0.89494103  0.28783439  0.62516107     0.43900
N419        N  0.84031293  0.29676934  0.61621045    -0.32400
N420        N  0.86319466  0.30309414  0.60995528    -0.26700
C421        C  0.86237253  0.32071489  0.59236095    -0.02800
C422        C  0.83787068  0.32579775  0.58722191     0.09400
C423        C  0.82424802  0.31035714  0.60260118     0.03200
H424        H  0.87849765  0.32918257  0.58391779     0.10900
H425        H  0.80425583  0.30906536  0.60381219     0.10000
N426        N  0.92466736  0.27055863  0.64215704    -0.33900
N427        N  0.92213836  0.25322058  0.65930074    -0.26100
C428        C  0.94473931  0.24563367  0.66668888    -0.01300
C429        C  0.96214123  0.25893096  0.65346757     0.07300
C430        C  0.94893318  0.27453443  0.63811275     0.05400
H431        H  0.94816577  0.23155156  0.68057680     0.10500
H432        H  0.95635380  0.28777679  0.62497790     0.09400
N433        N  0.14767825  0.23171662  0.68057839    -0.25000
N434        N  0.16767166  0.24178430  0.67043301    -0.32900
C435        C  0.18791637  0.23144318  0.68080558     0.03300
C436        C  0.18012410  0.21422336  0.69812795     0.09300
C437        C  0.15462088  0.21482005  0.69755917    -0.03800
H438        H  0.20685626  0.23611778  0.67607899     0.10000
H439        H  0.14198469  0.20382331  0.70862150     0.11200
Cu440      Cu  0.16675662  0.26915797  0.64291977     0.44200
Cu441      Cu  0.11160004  0.24074577  0.67149474     0.42000
Cu442      Cu  0.10470260  0.28697992  0.62469546     0.43900
N443        N  0.15932297  0.29606705  0.61595442    -0.32400
N444        N  0.13645234  0.30229188  0.60956794    -0.26700
C445        C  0.13729823  0.31993411  0.59199780    -0.02800
C446        C  0.16180673  0.32513498  0.58701286     0.09400
C447        C  0.17540815  0.30974305  0.60245773     0.03200
H448        H  0.12118532  0.32836776  0.58349919     0.10900
H449        H  0.19539814  0.30857017  0.60381550     0.10000
N450        N  0.07494596  0.26993999  0.64185988    -0.33900
N451        N  0.07741794  0.25281513  0.65922532    -0.26100
C452        C  0.05478738  0.24542493  0.66672960    -0.01300
C453        C  0.03743268  0.25862503  0.65334680     0.07300
C454        C  0.05069649  0.27396875  0.63778351     0.05400
H455        H  0.05130874  0.23156017  0.68082197     0.10500
H456        H  0.04332456  0.28709893  0.62451011     0.09400
N457        N  0.31953893  0.76469126  0.68074879    -0.25000
N458        N  0.32955603  0.74468549  0.67057722    -0.32900
C459        C  0.31913105  0.72445123  0.68089049     0.03300
C460        C  0.30190998  0.73226714  0.69820083     0.09300
C461        C  0.30259215  0.75776986  0.69768573    -0.03800
H462        H  0.32376138  0.70550414  0.67614402     0.10000
H463        H  0.29163132  0.77042064  0.70876722     0.11200
Cu464      Cu  0.35699212  0.74558518  0.64313048     0.44200
Cu465      Cu  0.32871505  0.80075773  0.67177926     0.42000
Cu466      Cu  0.37511247  0.80765613  0.62515949     0.43900
N467        N  0.38395414  0.75301575  0.61622151    -0.32400
N468        N  0.39029443  0.77588502  0.60993459    -0.26700
C469        C  0.40790999  0.77502535  0.59233904    -0.02800
C470        C  0.41297260  0.75051039  0.58723590     0.09400
C471        C  0.39752705  0.73691908  0.60263531     0.03200
H472        H  0.41640133  0.79113316  0.58388510     0.10900
H473        H  0.39623205  0.71692790  0.60388621     0.10000
N474        N  0.35802110  0.83742028  0.64226899    -0.33900
N475        N  0.34082810  0.83494073  0.65956505    -0.26100
C476        C  0.33330583  0.85756718  0.66695043    -0.01300
C477        C  0.34649234  0.87493025  0.65356513     0.07300
C478        C  0.36196434  0.86167464  0.63812014     0.05400
H479        H  0.31931235  0.86103700  0.68091671     0.10500
H480        H  0.37507175  0.86905497  0.62482857     0.09400
N481        N  0.31932968  0.06046184  0.68053605    -0.25000
N482        N  0.32950478  0.08046423  0.67051693    -0.32900
C483        C  0.31922780  0.10070186  0.68097046     0.03300
C484        C  0.30193696  0.09289279  0.69821403     0.09300
C485        C  0.30242549  0.06738889  0.69751424    -0.03800
H486        H  0.32396857  0.11964718  0.67632715     0.10000
H487        H  0.29132835  0.05474207  0.70846384     0.11200
Cu488      Cu  0.35686620  0.07955150  0.64299829     0.44200
Cu489      Cu  0.32819662  0.02439862  0.67124428     0.42000
Cu490      Cu  0.37443511  0.01749354  0.62443495     0.43900
N491        N  0.38365479  0.07213864  0.61591364    -0.32400
N492        N  0.38978776  0.04927668  0.60939795    -0.26700
C493        C  0.40735626  0.05015574  0.59175506    -0.02800
C494        C  0.41260085  0.07467610  0.58685923     0.09400
C495        C  0.39731461  0.08824887  0.60243178     0.03200
H496        H  0.41570747  0.03405804  0.58314365     0.10900
H497        H  0.39619808  0.10823734  0.60388251     0.10000
N498        N  0.35731925  0.98773570  0.64153900    -0.33900
N499        N  0.34018597  0.99021959  0.65889454    -0.26100
C500        C  0.33279236  0.96759499  0.66641372    -0.01300
C501        C  0.34599779  0.95022773  0.65305361     0.07300
C502        C  0.36135010  0.96347906  0.63748531     0.05400
H503        H  0.31895500  0.96412904  0.68053568     0.10500
H504        H  0.37451787  0.95609401  0.62425611     0.09400
N505        N  0.68050932  0.23215848  0.85189631    -0.25000
N506        N  0.67045121  0.24230135  0.83189880    -0.32900
C507        C  0.68080321  0.23191982  0.81166104     0.03300
C508        C  0.69801757  0.21459653  0.81947022     0.09300
C509        C  0.69740685  0.21517580  0.84496942    -0.03800
H510        H  0.67613348  0.23663287  0.79271714     0.10000
H511        H  0.70838519  0.20410799  0.85761560     0.11200
Cu512      Cu  0.64306476  0.26980870  0.83283594     0.44200
Cu513      Cu  0.67143949  0.24119655  0.88796275     0.42000
Cu514      Cu  0.62511803  0.28785174  0.89496176     0.43900
N515        N  0.61617081  0.29678075  0.84033197    -0.32400
N516        N  0.60990499  0.30309677  0.86321326    -0.26700
C517        C  0.59229966  0.32070592  0.86239021    -0.02800
C518        C  0.58716447  0.32579052  0.83788827     0.09400
C519        C  0.60255744  0.31036323  0.82426607     0.03200
H520        H  0.58384901  0.32916707  0.87851490     0.10900
H521        H  0.60377691  0.30907881  0.80427384     0.10000
N522        N  0.64213509  0.27060876  0.92469354    -0.33900
N523        N  0.65930713  0.25329850  0.92216907    -0.26100
C524        C  0.66670170  0.24572337  0.94477168    -0.01300
C525        C  0.65345472  0.25899968  0.96216988     0.07300
C526        C  0.63807821  0.27457849  0.94895817     0.05400
H527        H  0.68060879  0.23166112  0.94820168     0.10500
H528        H  0.62491838  0.28779796  0.95637537     0.09400
N529        N  0.68056300  0.23177424  0.14770178    -0.25000
N530        N  0.67041252  0.24183693  0.16769491    -0.32900
C531        C  0.68078271  0.23149481  0.18794014     0.03300
C532        C  0.69810945  0.21427921  0.18014896     0.09300
C533        C  0.69754532  0.21487937  0.15464526    -0.03800
H534        H  0.67604728  0.23616174  0.20687974     0.10000
H535        H  0.70860748  0.20388192  0.14200955     0.11200
Cu536      Cu  0.64288518  0.26919428  0.16677789     0.44200
Cu537      Cu  0.67146929  0.24080049  0.11162486     0.42000
Cu538      Cu  0.62460570  0.28698002  0.10472973     0.43900
N539        N  0.61589388  0.29607740  0.15935226    -0.32400
N540        N  0.60948421  0.30228812  0.13648424    -0.26700
C541        C  0.59190162  0.31991756  0.13733776    -0.02800
C542        C  0.58693336  0.32512387  0.16184870     0.09400
C543        C  0.60240072  0.30974937  0.17544332     0.03200
H544        H  0.58338527  0.32834064  0.12122865     0.10900
H545        H  0.60377739  0.30858668  0.19543272     0.10000
N546        N  0.64179059  0.26995904  0.07497411    -0.33900
N547        N  0.65917952  0.25285774  0.07744534    -0.26100
C548        C  0.66669754  0.24548285  0.05481444    -0.01300
C549        C  0.65329940  0.25866794  0.03746053     0.07300
C550        C  0.63771263  0.27398719  0.05072473     0.05400
H551        H  0.68081195  0.23164079  0.05133507     0.10500
H552        H  0.62442507  0.28710326  0.04335321     0.09400
N553        N  0.31931678  0.59337505  0.85237648    -0.25000
N554        N  0.32943593  0.58329621  0.83237616    -0.32900
C555        C  0.31909292  0.59367894  0.81213843     0.03300
C556        C  0.30181661  0.61093840  0.81994307     0.09300
C557        C  0.30238281  0.61032310  0.84544603    -0.03800
H558        H  0.32379367  0.58899085  0.79319537     0.10000
H559        H  0.29133177  0.62132257  0.85808972     0.11200
Cu560      Cu  0.35684387  0.55582460  0.83327832     0.44200
Cu561      Cu  0.32831834  0.58422428  0.88844275     0.42000
Cu562      Cu  0.37470630  0.53756120  0.89532185     0.43900
N563        N  0.38372109  0.52882746  0.84068341    -0.32400
N564        N  0.38997022  0.52243014  0.86354477    -0.26700
C565        C  0.40755545  0.50480386  0.86266799    -0.02800
C566        C  0.41268915  0.49979415  0.83814943     0.09400
C567        C  0.39732038  0.51528289  0.82457486     0.03200
H568        H  0.41598076  0.49626866  0.87876598     0.10900
H569        H  0.39609784  0.51662523  0.80458671     0.10000
N570        N  0.35759468  0.55465117  0.92508645    -0.33900
N571        N  0.34040484  0.57195299  0.92261637    -0.26100
C572        C  0.33298234  0.57942510  0.94524655    -0.01300
C573        C  0.34622954  0.56609057  0.96260127     0.07300
C574        C  0.36163391  0.55058581  0.94933705     0.05400
H575        H  0.31907332  0.59347390  0.94872488     0.10500
H576        H  0.37481856  0.53736684  0.95670958     0.09400
N577        N  0.31958805  0.59325666  0.14816622    -0.25000
N578        N  0.32963953  0.58311520  0.16816808    -0.32900
C579        C  0.31924059  0.59345916  0.18840159     0.03300
C580        C  0.30200345  0.61075701  0.18058490     0.09300
C581        C  0.30264888  0.61020047  0.15508625    -0.03800
H582        H  0.32390151  0.58874554  0.20734754     0.10000
H583        H  0.29167135  0.62126373  0.14243544     0.11200
Cu584      Cu  0.35709647  0.55567606  0.16724188     0.44200
Cu585      Cu  0.32871730  0.58427131  0.11209981     0.42000
Cu586      Cu  0.37514453  0.53772970  0.10511668     0.43900
N587        N  0.38406746  0.52877915  0.15974695    -0.32400
N588        N  0.39037358  0.52250455  0.13686533    -0.26700
C589        C  0.40800347  0.50492042  0.13768664    -0.02800
C590        C  0.41311485  0.49980971  0.16218763     0.09400
C591        C  0.39767982  0.51519383  0.17581179     0.03200
H592        H  0.41647348  0.49648028  0.12156108     0.10900
H593        H  0.39641976  0.51643560  0.19580422     0.10000
N594        N  0.35803689  0.55486678  0.07537750    -0.33900
N595        N  0.34082500  0.57213840  0.07789365    -0.26100
C596        C  0.33331903  0.57959080  0.05528634    -0.01300
C597        C  0.34653603  0.56627433  0.03789465     0.07300
C598        C  0.36200943  0.55079991  0.05111526     0.05400
H599        H  0.31933107  0.59357074  0.05184871     0.10500
H600        H  0.37515188  0.53755898  0.04370552     0.09400
N601        N  0.31940509  0.76489916  0.31958472    -0.25000
N602        N  0.32950928  0.74490031  0.32967826    -0.32900
C603        C  0.31915184  0.72465924  0.31930532     0.03300
C604        C  0.30188190  0.73246241  0.30203655     0.09300
C605        C  0.30246756  0.75796720  0.30263883    -0.03800
H606        H  0.32385255  0.70571538  0.32399130     0.10000
H607        H  0.29144253  0.77061177  0.29161572     0.11200
Cu608      Cu  0.35695303  0.74583749  0.35712081     0.44200
Cu609      Cu  0.32848130  0.80096215  0.32867640     0.42000
Cu610      Cu  0.37498163  0.80792686  0.37522505     0.43900
N611        N  0.38389087  0.75327455  0.38405844    -0.32400
N612        N  0.39019770  0.77614071  0.39039826    -0.26700
C613        C  0.40781392  0.77526705  0.40799606    -0.02800
C614        C  0.41290957  0.75074675  0.41304439     0.09400
C615        C  0.39748414  0.73716858  0.39761084     0.03200
H616        H  0.41628825  0.79136818  0.41648365     0.10900
H617        H  0.39622068  0.71717834  0.39630962     0.10000
N618        N  0.35786408  0.83766771  0.35808859    -0.33900
N619        N  0.34063154  0.83515455  0.34083367    -0.26100
C620        C  0.33317154  0.85776479  0.33334320    -0.01300
C621        C  0.34643726  0.87515653  0.34661345     0.07300
C622        C  0.36189443  0.86193324  0.36210383     0.05400
H623        H  0.31920341  0.86120494  0.31934362     0.10500
H624        H  0.37508595  0.86934298  0.37529826     0.09400
N625        N  0.31920814  0.06067696  0.31921605    -0.25000
N626        N  0.32930047  0.08068454  0.32931731    -0.32900
C627        C  0.31892198  0.10091938  0.31896181     0.03300
C628        C  0.30165122  0.09310795  0.30169717     0.09300
C629        C  0.30225672  0.06760232  0.30228161    -0.03800
H630        H  0.32360677  0.11986616  0.32366035     0.10000
H631        H  0.29123253  0.05495323  0.29125761     0.11200
Cu632      Cu  0.35675188  0.07981841  0.35675640     0.44200
Cu633      Cu  0.32829073  0.02459939  0.32827664     0.42000
Cu634      Cu  0.37484085  0.01779965  0.37476970     0.43900
N635        N  0.38370279  0.07242675  0.38369193    -0.32400
N636        N  0.39003347  0.04956004  0.38998937    -0.26700
C637        C  0.40763606  0.05041870  0.40759760    -0.02800
C638        C  0.41270166  0.07493237  0.41270221     0.09400
C639        C  0.39727031  0.08852485  0.39728766     0.03200
H640        H  0.41611543  0.03431046  0.41606032     0.10900
H641        H  0.39598163  0.10851604  0.39603357     0.10000
N642        N  0.35775528  0.98800616  0.35771925    -0.33900
N643        N  0.34049444  0.99043573  0.34048253    -0.26100
C644        C  0.33305471  0.96778285  0.33308385    -0.01300
C645        C  0.34636906  0.95046102  0.34639911     0.07300
C646        C  0.36182676  0.96376624  0.36181538     0.05400
H647        H  0.31906257  0.96426649  0.31912602     0.10500
H648        H  0.37504012  0.95642917  0.37502564     0.09400
N649        N  0.85191468  0.23236375  0.31913088    -0.25000
N650        N  0.83191300  0.24241983  0.32926886    -0.32900
C651        C  0.81167753  0.23196695  0.31898392     0.03300
C652        C  0.81948803  0.21468543  0.30172886     0.09300
C653        C  0.84498860  0.21536545  0.30224332    -0.03800
H654        H  0.79273343  0.23659955  0.32373201     0.10000
H655        H  0.85763535  0.20434729  0.29121493     0.11200
Cu656      Cu  0.83281823  0.26989650  0.35668161     0.44200
Cu657      Cu  0.88798608  0.24150159  0.32812512     0.42000
Cu658      Cu  0.89489845  0.28822763  0.37440359     0.43900
N659        N  0.84027163  0.29688330  0.38356623    -0.32400
N660        N  0.86314459  0.30332420  0.38973361    -0.26700
C661        C  0.86230513  0.32090193  0.40737051    -0.02800
C662        C  0.83779959  0.32583117  0.41263030     0.09400
C663        C  0.82419180  0.31034919  0.39727770     0.03200
H664        H  0.87842078  0.32943588  0.41576809     0.10900
H665        H  0.80420185  0.30894355  0.39615687     0.10000
N666        N  0.92465755  0.27097952  0.35745543    -0.33900
N667        N  0.92217546  0.25363627  0.34030668    -0.26100
C668        C  0.94479975  0.24602285  0.33301375    -0.01300
C669        C  0.96216294  0.25931219  0.34630244     0.07300
C670        C  0.94890961  0.27493442  0.36159817     0.05400
H671        H  0.94826842  0.23191303  0.31916205     0.10500
H672        H  0.95628985  0.28815770  0.37477849     0.09400
N673        N  0.14771105  0.23194436  0.31969976    -0.25000
N674        N  0.16770361  0.24211303  0.32974643    -0.32900
C675        C  0.18794899  0.23185717  0.31929079     0.03300
C676        C  0.18015535  0.21458739  0.30201461     0.09300
C677        C  0.15465238  0.21506275  0.30270206    -0.03800
H678        H  0.20688850  0.23663239  0.32392026     0.10000
H679        H  0.14201588  0.20400934  0.29169343     0.11200
Cu680      Cu  0.16676528  0.26951746  0.35722324     0.44200
Cu681      Cu  0.11164101  0.24089050  0.32888377     0.42000
Cu682      Cu  0.10468949  0.28706993  0.37574666     0.43900
N683        N  0.15932345  0.29636003  0.38424674    -0.32400
N684        N  0.13645821  0.30246732  0.39076679    -0.26700
C685        C  0.13732164  0.32008676  0.40836272    -0.02800
C686        C  0.16183442  0.32539450  0.41321834     0.09400
C687        C  0.17541982  0.31009084  0.39767515     0.03200
H688        H  0.12121839  0.32843705  0.41696154     0.10900
H689        H  0.19540721  0.30901206  0.39620603     0.10000
N690        N  0.07494872  0.27006110  0.35850591    -0.33900
N691        N  0.07744950  0.25296522  0.34111266    -0.26100
C692        C  0.05483384  0.24563389  0.33350633    -0.01300
C693        C  0.03745482  0.25883774  0.34685235     0.07300
C694        C  0.05069032  0.27412740  0.36250015     0.05400
H695        H  0.05138171  0.23181909  0.31935553     0.10500
H696        H  0.04329352  0.28726119  0.37575825     0.09400
N697        N  0.31902529  0.23240110  0.85202465    -0.25000
N698        N  0.32916235  0.24245639  0.83202245    -0.32900
C699        C  0.31887224  0.23200806  0.81178783     0.03300
C700        C  0.30161439  0.21473075  0.81959999     0.09300
C701        C  0.30213263  0.21540760  0.84510035    -0.03800
H702        H  0.32362207  0.23663757  0.79284340     0.10000
H703        H  0.29110731  0.20438730  0.85774799     0.11200
Cu704      Cu  0.35658594  0.26991884  0.83292849     0.44200
Cu705      Cu  0.32803719  0.24152823  0.88809182     0.42000
Cu706      Cu  0.37432165  0.28825139  0.89500873     0.43900
N707        N  0.38348045  0.29689361  0.84037806    -0.32400
N708        N  0.38965221  0.30333792  0.86324904    -0.26700
C709        C  0.40729664  0.32090794  0.86240267    -0.02800
C710        C  0.41255605  0.32582722  0.83789471     0.09400
C711        C  0.39719590  0.31034845  0.82429305     0.03200
H712        H  0.41569990  0.32944279  0.87851495     0.10900
H713        H  0.39607249  0.30893737  0.80430356     0.10000
N714        N  0.35737968  0.27099090  0.92476554    -0.33900
N715        N  0.34023131  0.25364788  0.92227940    -0.26100
C716        C  0.33294495  0.24602138  0.94490093    -0.01300
C717        C  0.34623693  0.25930177  0.96226735     0.07300
C718        C  0.36152839  0.27493267  0.94901891     0.05400
H719        H  0.31909521  0.23190865  0.94836533     0.10500
H720        H  0.37471011  0.28815221  0.95640325     0.09400
N721        N  0.31959984  0.23192545  0.14781204    -0.25000
N722        N  0.32964529  0.24209807  0.16780333    -0.32900
C723        C  0.31918021  0.23185439  0.18805006     0.03300
C724        C  0.30189883  0.21458876  0.18025887     0.09300
C725        C  0.30259365  0.21505327  0.15475571    -0.03800
H726        H  0.32380764  0.23663430  0.20698893     0.10000
H727        H  0.29158497  0.20399817  0.14212069     0.11200
Cu728      Cu  0.35713522  0.26948965  0.16686339     0.44200
Cu729      Cu  0.32879753  0.24085275  0.11174044     0.42000
Cu730      Cu  0.37571773  0.28697727  0.10479252     0.43900
N731        N  0.38417879  0.29631263  0.15942257    -0.32400
N732        N  0.39072340  0.30239326  0.13655731    -0.26700
C733        C  0.40832347  0.32000845  0.13741861    -0.02800
C734        C  0.41315615  0.32534162  0.16193039     0.09400
C735        C  0.39759498  0.31005736  0.17551736     0.03200
H736        H  0.41693747  0.32834165  0.12131455     0.10900
H737        H  0.39610338  0.30900326  0.19550450     0.10000
N738        N  0.35846471  0.26998296  0.07505253    -0.33900
N739        N  0.34104845  0.25291012  0.07755042    -0.26100
C740        C  0.33343344  0.24559232  0.05493318    -0.01300
C741        C  0.34679871  0.25878076  0.03755711     0.07300
C742        C  0.36246584  0.27404742  0.05079526     0.05400
H743        H  0.31926194  0.23179952  0.05147807     0.10500
H744        H  0.37573898  0.28716749  0.04340110     0.09400
N745        N  0.18047542  0.26516501  0.18068495    -0.25000
N746        N  0.17038779  0.24516410  0.17057014    -0.32900
C747        C  0.18076481  0.22492279  0.18091544     0.03300
C748        C  0.19803208  0.23272446  0.19818996     0.09300
C749        C  0.19742397  0.25823181  0.19761964    -0.03800
H750        H  0.17608043  0.20597884  0.17620516     0.10000
H751        H  0.20844252  0.27087590  0.20865493     0.11200
Cu752      Cu  0.14294302  0.24608244  0.14312987     0.44200
Cu753      Cu  0.17136163  0.30123164  0.17162308     0.42000
Cu754      Cu  0.12480410  0.30812013  0.12508720     0.43900
N755        N  0.11599883  0.25346856  0.11618901    -0.32400
N756        N  0.10964506  0.27632496  0.10987240    -0.26700
C757        C  0.09204659  0.27542674  0.09225817    -0.02800
C758        C  0.08701201  0.25089928  0.08717426     0.09400
C759        C  0.10245505  0.23734292  0.10260478     0.03200
H760        H  0.08354798  0.29151583  0.08377837     0.10900
H761        H  0.10376789  0.21735454  0.10387845     0.10000
N762        N  0.14190836  0.33787900  0.14220859    -0.33900
N763        N  0.15915967  0.33540518  0.15945042    -0.26100
C764        C  0.16661558  0.35803615  0.16689612    -0.01300
C765        C  0.15332526  0.37539514  0.15361014     0.07300
C766        C  0.13786204  0.36213302  0.13815869     0.05400
H767        H  0.18060662  0.36151224  0.18086514     0.10500
H768        H  0.12466484  0.36950937  0.12495420     0.09400
N769        N  0.18051801  0.56094040  0.18044978    -0.25000
N770        N  0.17045090  0.58096396  0.17036536    -0.32900
C771        C  0.18084562  0.60117786  0.18075938     0.03300
C772        C  0.19809649  0.59332423  0.19802781     0.09300
C773        C  0.19746157  0.56782584  0.19740425    -0.03800
H774        H  0.17618181  0.62013509  0.17609062     0.10000
H775        H  0.20845677  0.55515102  0.20842238     0.11200
Cu776      Cu  0.14300013  0.58008887  0.14291300     0.44200
Cu777      Cu  0.17141444  0.52488687  0.17137887     0.42000
Cu778      Cu  0.12492538  0.51796834  0.12491645     0.43900
N779        N  0.11604585  0.57261596  0.11598681    -0.32400
N780        N  0.10973227  0.54973675  0.10969998    -0.26700
C781        C  0.09211291  0.55056874  0.09210617    -0.02800
C782        C  0.08701581  0.57507363  0.08699869     0.09400
C783        C  0.10244799  0.58869062  0.10239708     0.03200
H784        H  0.08363644  0.53444678  0.08366038     0.10900
H785        H  0.10371186  0.60868394  0.10364924     0.10000
N786        N  0.14199301  0.48819792  0.14203585    -0.33900
N787        N  0.15924171  0.49069145  0.15927449    -0.26100
C788        C  0.16667916  0.46807289  0.16676363    -0.01300
C789        C  0.15337693  0.45069721  0.15350602     0.07300
C790        C  0.13792576  0.46393908  0.13802687     0.05400
H791        H  0.18065716  0.46461677  0.18074937     0.10500
H792        H  0.12471641  0.45654618  0.12484095     0.09400
N793        N  0.35188159  0.09351646  0.18044099    -0.25000
N794        N  0.33187538  0.08341474  0.17035166    -0.32900
C795        C  0.31164385  0.09376312  0.18074345     0.03300
C796        C  0.31946095  0.11102294  0.19801893     0.09300
C797        C  0.34496234  0.11044233  0.19740309    -0.03800
H798        H  0.29269750  0.08906735  0.17606110     0.10000
H799        H  0.35761339  0.12146701  0.20842389     0.11200
Cu800      Cu  0.33276322  0.05599193  0.14288459     0.44200
Cu801      Cu  0.38794818  0.08447182  0.17134163     0.42000
Cu802      Cu  0.39482510  0.03797657  0.12481772     0.43900
N803        N  0.34019124  0.02905817  0.11594114    -0.32400
N804        N  0.36305969  0.02276025  0.10961805    -0.26700
C805        C  0.36220459  0.00513058  0.09203324    -0.02800
C806        C  0.33769347  0.00001418  0.08697345     0.09400
C807        C  0.32409887  0.01544325  0.10238777     0.03200
H808        H  0.37831328  0.99665175  0.08357145     0.10900
H809        H  0.30410899  0.01668544  0.10368402     0.10000
N810        N  0.42459658  0.05501864  0.14196330    -0.33900
N811        N  0.42212732  0.07226244  0.15921342    -0.26100
C812        C  0.44475749  0.07962971  0.16674307    -0.01300
C813        C  0.46211155  0.06628713  0.15350066     0.07300
C814        C  0.44884631  0.05088570  0.13798919     0.05400
H815        H  0.44823641  0.09356762  0.18076600     0.10500
H816        H  0.45621710  0.03764485  0.12482342     0.09400
N817        N  0.64766640  0.09306747  0.18077577    -0.25000
N818        N  0.66765105  0.08295383  0.17066319    -0.32900
C819        C  0.68790539  0.09334365  0.18097180     0.03300
C820        C  0.68012988  0.11064664  0.19821923     0.09300
C821        C  0.65462475  0.11004708  0.19767197    -0.03800
H822        H  0.70684043  0.08863787  0.17625991     0.10000
H823        H  0.64199880  0.12108557  0.20870386     0.11200
Cu824      Cu  0.66670302  0.05544847  0.14328786     0.44200
Cu825      Cu  0.61158770  0.08392967  0.17178786     0.42000
Cu826      Cu  0.60464957  0.03716839  0.12546727     0.43900
N827        N  0.65928107  0.02844802  0.11641525    -0.32400
N828        N  0.63641777  0.02203483  0.11018417    -0.26700
C829        C  0.63729021  0.00443282  0.09257003    -0.02800
C830        C  0.66180868  0.99945982  0.08739849     0.09400
C831        C  0.67538582  0.01494155  0.10277554     0.03200
H832        H  0.62119044  0.99590552  0.08413541     0.10900
H833        H  0.69537391  0.01631844  0.10396307     0.10000
N834        N  0.57490906  0.05433436  0.14254830    -0.33900
N835        N  0.57740190  0.07167027  0.15970525    -0.26100
C836        C  0.55478134  0.07919911  0.16709702    -0.01300
C837        C  0.53740838  0.06586656  0.15386607     0.07300
C838        C  0.55065223  0.05030381  0.13850073     0.05400
H839        H  0.55132139  0.09328993  0.18097020     0.10500
H840        H  0.54326196  0.03707501  0.12533162     0.09400
N841        N  0.35210079  0.09332339  0.81949068    -0.25000
N842        N  0.33209062  0.08321255  0.82955825    -0.32900
C843        C  0.31186341  0.09356530  0.81916353     0.03300
C844        C  0.31968574  0.11083877  0.80190806     0.09300
C845        C  0.34518782  0.11026102  0.80253917    -0.03800
H846        H  0.29291559  0.08886221  0.82382966     0.10000
H847        H  0.35784306  0.12129560  0.79153646     0.11200
Cu848      Cu  0.33297050  0.05577942  0.85700918     0.44200
Cu849      Cu  0.38815835  0.08428359  0.82863636     0.42000
Cu850      Cu  0.39500821  0.03791880  0.87532005     0.43900
N851        N  0.34036079  0.02888298  0.88399492    -0.32400
N852        N  0.36321854  0.02264463  0.89041624    -0.26700
C853        C  0.36233194  0.00504079  0.90802336    -0.02800
C854        C  0.33781127  0.99988000  0.91299371     0.09400
C855        C  0.32424504  0.01525501  0.89750309     0.03200
H856        H  0.37842530  0.99661428  0.91656601     0.10900
H857        H  0.30425783  0.01645852  0.89613114     0.10000
N858        N  0.42478637  0.05500691  0.85822818    -0.33900
N859        N  0.42232526  0.07218546  0.84091399    -0.26100
C860        C  0.44495890  0.07960956  0.83345471    -0.01300
C861        C  0.46230761  0.06637577  0.84681039     0.07300
C862        C  0.44903534  0.05097669  0.86231442     0.05400
H863        H  0.44844381  0.09352123  0.81941013     0.10500
H864        H  0.45640129  0.03781120  0.87555603     0.09400
N865        N  0.64783375  0.09314851  0.81944609    -0.25000
N866        N  0.66784744  0.08313047  0.82959697    -0.32900
C867        C  0.68807010  0.09351395  0.81921764     0.03300
C868        C  0.68023869  0.11070870  0.80188516     0.09300
C869        C  0.65473797  0.11005226  0.80245756    -0.03800
H870        H  0.70702031  0.08888134  0.82394167     0.10000
H871        H  0.64207633  0.12101051  0.79138762     0.11200
Cu872      Cu  0.66695858  0.05575551  0.85711631     0.44200
Cu873      Cu  0.61177780  0.08403892  0.82852623     0.42000
Cu874      Cu  0.60488440  0.03773035  0.87523444     0.43900
N875        N  0.65953275  0.02882921  0.88407407    -0.32400
N876        N  0.63666772  0.02252482  0.89040949    -0.26700
C877        C  0.63753505  0.00490570  0.90800237    -0.02800
C878        C  0.66204967  0.99980281  0.91305632     0.09400
C879        C  0.67563321  0.01522894  0.89762840     0.03200
H880        H  0.62143192  0.99643076  0.91648032     0.10900
H881        H  0.69562219  0.01648350  0.89632832     0.10000
N882        N  0.57511627  0.05479817  0.85810847    -0.33900
N883        N  0.57759639  0.07195881  0.84077962    -0.26100
C884        C  0.55497174  0.07941931  0.83333272    -0.01300
C885        C  0.53760793  0.06622786  0.84671187     0.07300
C886        C  0.55086252  0.05081550  0.86221760     0.05400
H887        H  0.55150309  0.09334673  0.81930016     0.10500
H888        H  0.54348154  0.03769325  0.87549464     0.09400
N889        N  0.35213948  0.73210367  0.18061325    -0.25000
N890        N  0.33213381  0.74218173  0.17050713    -0.32900
C891        C  0.31190343  0.73181274  0.18088405     0.03300
C892        C  0.31972254  0.71456547  0.19816874     0.09300
C893        C  0.34522330  0.71517287  0.19756921    -0.03800
H894        H  0.29295673  0.73650285  0.17620283     0.10000
H895        H  0.35787653  0.70418019  0.20861466     0.11200
Cu896      Cu  0.33304495  0.76963634  0.14307273     0.44200
Cu897      Cu  0.38819635  0.74122729  0.17156915     0.42000
Cu898      Cu  0.39512216  0.78774826  0.12506137     0.43900
N899        N  0.34047717  0.79658951  0.11614815    -0.32400
N900        N  0.36334226  0.80292291  0.10984225    -0.26700
C901        C  0.36247326  0.82053193  0.09223839    -0.02800
C902        C  0.33795708  0.82559818  0.08715030     0.09400
C903        C  0.32437586  0.81016094  0.10256742     0.03200
H904        H  0.37857544  0.82902037  0.08377229     0.10900
H905        H  0.30438703  0.80887290  0.10383623     0.10000
N906        N  0.42487469  0.77065209  0.14219098    -0.33900
N907        N  0.42237990  0.75340788  0.15943487    -0.26100
C908        C  0.44499677  0.74592738  0.16688307    -0.01300
C909        C  0.46237181  0.75919295  0.15359444     0.07300
C910        C  0.44913240  0.77467012  0.13814016     0.05400
H911        H  0.44845224  0.73192666  0.18084588     0.10500
H912        H  0.45652623  0.78784771  0.12492531     0.09400
N913        N  0.64789099  0.73200373  0.18069590    -0.25000
N914        N  0.66789405  0.74217736  0.17067621    -0.32900
C915        C  0.68812795  0.73185182  0.18108516     0.03300
C916        C  0.68031689  0.71453151  0.19829865     0.09300
C917        C  0.65481544  0.71505286  0.19762881    -0.03800
H918        H  0.70707265  0.73659594  0.17644796     0.10000
H919        H  0.64216792  0.70396385  0.20858568     0.11200
Cu920      Cu  0.66700405  0.76964345  0.14325557     0.44200
Cu921      Cu  0.61182334  0.74097247  0.17152572     0.42000
Cu922      Cu  0.60495326  0.78768506  0.12521485     0.43900
N923        N  0.65958290  0.79658329  0.11631876    -0.32400
N924        N  0.63671488  0.80290779  0.11002095    -0.26700
C925        C  0.63756970  0.82049365  0.09239533    -0.02800
C926        C  0.66208076  0.82555081  0.08727868     0.09400
C927        C  0.67567522  0.81013464  0.10270523     0.03200
H928        H  0.62146088  0.82895590  0.08391738     0.10900
H929        H  0.69566501  0.80883707  0.10394770     0.10000
N930        N  0.57518349  0.77047196  0.14218421    -0.33900
N931        N  0.57764877  0.75313892  0.15934241    -0.26100
C932        C  0.55501662  0.74564749  0.16673870    -0.01300
C933        C  0.53766645  0.75900237  0.15350557     0.07300
C934        C  0.55093504  0.77453915  0.13813810     0.05400
H935        H  0.55153384  0.73161546  0.18066354     0.10500
H936        H  0.54356723  0.78782229  0.12501549     0.09400
N937        N  0.81970562  0.26466671  0.18098570    -0.25000
N938        N  0.82979541  0.24467362  0.17086008    -0.32900
C939        C  0.81932558  0.22442579  0.18110101     0.03300
C940        C  0.80199557  0.23221847  0.19831234     0.09300
C941        C  0.80266655  0.25772218  0.19782076    -0.03800
H942        H  0.82398118  0.20548500  0.17635414     0.10000
H943        H  0.79161998  0.27035814  0.20883376     0.11200
Cu944      Cu  0.85733618  0.24559993  0.14351831     0.44200
Cu945      Cu  0.82887781  0.30074958  0.17206576     0.42000
Cu946      Cu  0.87590605  0.30767867  0.12608840     0.43900
N947        N  0.88436818  0.25305939  0.11668678    -0.32400
N948        N  0.89090861  0.27593493  0.11063315    -0.26700
C949        C  0.90846557  0.27510251  0.09297778    -0.02800
C950        C  0.91327657  0.25059842  0.08758648     0.09400
C951        C  0.89774561  0.23698525  0.10288131     0.03200
H952        H  0.91705036  0.29122219  0.08464167     0.10900
H953        H  0.89623500  0.21699532  0.10388743     0.10000
N954        N  0.85861289  0.33743110  0.14301207    -0.33900
N955        N  0.84114595  0.33494399  0.16003037    -0.26100
C956        C  0.83349850  0.35756856  0.16729433    -0.01300
C957        C  0.84689756  0.37493722  0.15412715     0.07300
C958        C  0.86261563  0.36168660  0.13892899     0.05400
H959        H  0.81927786  0.36103356  0.18103041     0.10500
H960        H  0.87591818  0.36907111  0.12583498     0.09400
N961        N  0.81905153  0.56049479  0.18026776    -0.25000
N962        N  0.82910947  0.58048523  0.17010772    -0.32900
C963        C  0.81882679  0.60073626  0.18052762     0.03300
C964        C  0.80165637  0.59294844  0.19789882     0.09300
C965        C  0.80221662  0.56744365  0.19730523    -0.03800
H966        H  0.82352482  0.61967563  0.17581701     0.10000
H967        H  0.79125917  0.55481094  0.20841060     0.11200
Cu968      Cu  0.85642644  0.57954469  0.14255360     0.44200
Cu969      Cu  0.82809471  0.52441899  0.17119744     0.42000
Cu970      Cu  0.87409250  0.51747359  0.12415280     0.43900
N971        N  0.88324876  0.57211054  0.11551622    -0.32400
N972        N  0.88939224  0.54924374  0.10902832    -0.26700
C973        C  0.90702736  0.55011086  0.09145090    -0.02800
C974        C  0.91230855  0.57462850  0.08657696     0.09400
C975        C  0.89697155  0.58821133  0.10208873     0.03200
H976        H  0.91543147  0.53400723  0.08290245     0.10900
H977        H  0.89588626  0.60820013  0.10355874     0.10000
N978        N  0.85727363  0.48773001  0.14157913    -0.33900
N979        N  0.84025133  0.49022944  0.15904156    -0.26100
C980        C  0.83304086  0.46761261  0.16675989    -0.01300
C981        C  0.84624694  0.45023327  0.15341598     0.07300
C982        C  0.86141212  0.46347026  0.13765247     0.05400
H983        H  0.81929975  0.46416014  0.18097880     0.10500
H984        H  0.87450572  0.45607357  0.12435630     0.09400
N985        N  0.81936308  0.09327854  0.35213811    -0.25000
N986        N  0.82942425  0.08315559  0.33213044    -0.32900
C987        C  0.81902401  0.09349813  0.31190039     0.03300
C988        C  0.80177145  0.11077700  0.31971801     0.09300
C989        C  0.80241087  0.11021360  0.34522032    -0.03800
H990        H  0.82368733  0.08878741  0.29295371     0.10000
H991        H  0.79141612  0.12125946  0.35787266     0.11200
Cu992      Cu  0.85688237  0.05572717  0.33301507     0.44200
Cu993      Cu  0.82852411  0.08426969  0.38820099     0.42000
Cu994      Cu  0.87525576  0.03795788  0.39505630     0.43900
N995        N  0.88388932  0.02885190  0.34041454    -0.32400
N996        N  0.89033495  0.02264982  0.36327533    -0.26700
C997        C  0.90794982  0.00505328  0.36239863    -0.02800
C998        C  0.91290059  0.99985843  0.33788113     0.09400
C999        C  0.89738953  0.01520636  0.32430636     0.03200
H1000       H  0.91650989  0.99665355  0.37849677     0.10900
H1001       H  0.89599804  0.01637905  0.30431858     0.10000
N1002       N  0.85817113  0.05505512  0.42483287    -0.33900
N1003       N  0.84083643  0.07221279  0.42237147    -0.26100
C1004       C  0.83338414  0.07964346  0.44500570    -0.01300
C1005       C  0.84676676  0.06643611  0.46235454     0.07300
C1006       C  0.86227821  0.05104537  0.44908167     0.05400
H1007       H  0.81932422  0.09353942  0.44849103     0.10500
H1008       H  0.87553642  0.03789634  0.45644721     0.09400
N1009       N  0.81933195  0.09309537  0.64788310    -0.25000
N1010       N  0.82946431  0.08305933  0.66789708    -0.32900
C1011       C  0.81907236  0.09343058  0.68811949     0.03300
C1012       C  0.80175087  0.11063578  0.68028697     0.09300
C1013       C  0.80234315  0.10999884  0.65478641    -0.03800
H1014       H  0.82378606  0.08878841  0.70707002     0.10000
H1015       H  0.79129220  0.12097567  0.64212424     0.11200
Cu1016     Cu  0.85698871  0.05569043  0.66700684     0.52600
Cu1017     Cu  0.82844884  0.08402214  0.61182842     0.42000
Cu1018     Cu  0.87517151  0.03772892  0.60492896     0.43900
N1019       N  0.88396667  0.02878542  0.65957983    -0.32400
N1020       N  0.89032581  0.02250317  0.63671509    -0.26700
C1021       C  0.90793043  0.00489555  0.63758467    -0.02800
C1022       C  0.91296737  0.99977784  0.66210018     0.09400
C1023       C  0.89751677  0.01518270  0.67568171     0.03200
H1024       H  0.91642933  0.99643979  0.62148254     0.10900
H1025       H  0.89619967  0.01642252  0.69567057     0.10000
N1026       N  0.85806520  0.05482289  0.57516183    -0.33900
N1027       N  0.84073194  0.07197849  0.57764586    -0.26100
C1028       C  0.83329479  0.07945529  0.55502338    -0.01300
C1029       C  0.84668498  0.06628028  0.53765584     0.07300
C1030       C  0.86218686  0.05085995  0.55090659     0.05400
H1031       H  0.81925734  0.09337882  0.55155872     0.10500
H1032       H  0.87546597  0.03774201  0.54352187     0.09400
N1033       N  0.18050332  0.73203173  0.35220058    -0.25000
N1034       N  0.17038534  0.74210446  0.33219784    -0.32900
C1035       C  0.18075000  0.73172956  0.31196375     0.03300
C1036       C  0.19803890  0.71448326  0.31977633     0.09300
C1037       C  0.19745499  0.71509868  0.34527790    -0.03800
H1038       H  0.17606232  0.73641979  0.29301858     0.10000
H1039       H  0.20851336  0.70411465  0.35792731     0.11200
Cu1040     Cu  0.14296166  0.76957181  0.33311459     0.44200
Cu1041     Cu  0.17149349  0.74117804  0.38826362     0.42000
Cu1042     Cu  0.12503245  0.78774591  0.39519304     0.43900
N1043       N  0.11606145  0.79654991  0.34055230    -0.32400
N1044       N  0.10978661  0.80290622  0.36341958    -0.26700
C1045       C  0.09219403  0.82052681  0.36255743    -0.02800
C1046       C  0.08708051  0.82557763  0.33804327     0.09400
C1047       C  0.10247095  0.81011819  0.32445604     0.03200
H1048       H  0.08375252  0.82903340  0.37866300     0.10900
H1049       H  0.10371501  0.80881314  0.30446666     0.10000
N1050       N  0.14217725  0.77066413  0.42494466    -0.33900
N1051       N  0.15940285  0.75340148  0.42245081    -0.26100
C1052       C  0.16686479  0.74593743  0.44506927    -0.01300
C1053       C  0.15360444  0.75923357  0.46244366     0.07300
C1054       C  0.13815241  0.77471074  0.44920199     0.05400
H1055       H  0.18081692  0.73192657  0.44852648     0.10500
H1056       H  0.12495526  0.78790694  0.45659420     0.09400
N1057       N  0.18063480  0.73200778  0.64796945    -0.25000
N1058       N  0.17059893  0.74216511  0.66797267    -0.32900
C1059       C  0.18099115  0.73182292  0.68820681     0.03300
C1060       C  0.19821044  0.71450835  0.68039574     0.09300
C1061       C  0.19756184  0.71505107  0.65489400    -0.03800
H1062       H  0.17634356  0.73655668  0.70715164     0.10000
H1063       H  0.20853396  0.70397735  0.64224635     0.11200
Cu1064     Cu  0.14319029  0.76964314  0.66708116     0.44200
Cu1065     Cu  0.17150319  0.74101726  0.61190166     0.42000
Cu1066     Cu  0.12524578  0.78778345  0.60502713     0.43900
N1067       N  0.11627984  0.79660925  0.65965942    -0.32400
N1068       N  0.11001937  0.80297251  0.63679169    -0.26700
C1069       C  0.09239898  0.82056381  0.63764832    -0.02800
C1070       C  0.08724683  0.82558386  0.66215998     0.09400
C1071       C  0.10264690  0.81013990  0.67575285     0.03200
H1072       H  0.08394544  0.82905190  0.62154026     0.10900
H1073       H  0.10385609  0.80880724  0.69574245     0.10000
N1074       N  0.14222374  0.77057469  0.57525712    -0.33900
N1075       N  0.15936053  0.75322085  0.57772524    -0.26100
C1076       C  0.16675709  0.74572561  0.55509430    -0.01300
C1077       C  0.15354751  0.75909984  0.53774103     0.07300
C1078       C  0.13819244  0.77465164  0.55100733     0.05400
H1079       H  0.18066070  0.73167193  0.55161435     0.10500
H1080       H  0.12508199  0.78794529  0.54363695     0.09400
N1081       N  0.81940336  0.26452294  0.81933388    -0.25000
N1082       N  0.82949280  0.24451400  0.82942442    -0.32900
C1083       C  0.81910715  0.22428477  0.81905260     0.03300
C1084       C  0.80183792  0.23211133  0.80179121     0.09300
C1085       C  0.80245243  0.25761186  0.80239605    -0.03800
H1086       H  0.82378443  0.20533470  0.82373703     0.10000
H1087       H  0.79143337  0.27026998  0.79138255     0.11200
Cu1088     Cu  0.85694709  0.24542591  0.85686966     0.44200
Cu1089     Cu  0.82847943  0.30058579  0.82840065     0.42000
Cu1090     Cu  0.87499367  0.30754858  0.87486032     0.43900
N1091       N  0.88388660  0.25290946  0.88380542    -0.32400
N1092       N  0.89019671  0.27579004  0.89009004    -0.26700
C1093       C  0.90779546  0.27496132  0.90770575    -0.02800
C1094       C  0.91288043  0.25045619  0.91282924     0.09400
C1095       C  0.89746422  0.23683765  0.89741746     0.03200
H1096       H  0.91625837  0.29108472  0.91616239     0.10900
H1097       H  0.89619129  0.21684420  0.89617741     0.10000
N1098       N  0.85786378  0.33729754  0.85776409    -0.33900
N1099       N  0.84060902  0.33478776  0.84053310    -0.26100
C1100       C  0.83311439  0.35739926  0.83308034    -0.01300
C1101       C  0.84638498  0.37478688  0.84635273     0.07300
C1102       C  0.86187735  0.36156032  0.86180341     0.05400
H1103       H  0.81911302  0.36084253  0.81911479     0.10500
H1104       H  0.87507180  0.36896606  0.87499708     0.09400
N1105       N  0.81917387  0.56033210  0.81933524    -0.25000
N1106       N  0.82929065  0.58032752  0.82943402    -0.32900
C1107       C  0.81894616  0.60057328  0.81906650     0.03300
C1108       C  0.80167310  0.59277792  0.80179675     0.09300
C1109       C  0.80224076  0.56727322  0.80239093    -0.03800
H1110       H  0.82365732  0.61951526  0.82375787     0.10000
H1111       H  0.79120637  0.55463518  0.79136447     0.11200
Cu1112     Cu  0.85673308  0.57941446  0.85687737     0.44200
Cu1113     Cu  0.82821241  0.52425380  0.82840129     0.42000
Cu1114     Cu  0.87472180  0.51735857  0.87493066     0.43900
N1115       N  0.88366799  0.57198476  0.88381600    -0.32400
N1116       N  0.88996063  0.54911308  0.89013601    -0.26700
C1117       C  0.90757255  0.54996335  0.90773754    -0.02800
C1118       C  0.91268219  0.57447587  0.91281145     0.09400
C1119       C  0.89726802  0.58807490  0.89738724     0.03200
H1120       H  0.91603316  0.53385112  0.91621137     0.10900
H1121       H  0.89601619  0.60806679  0.89610635     0.10000
N1122       N  0.85762249  0.48759916  0.85781765    -0.33900
N1123       N  0.84038134  0.49007262  0.84056728    -0.26100
C1124       C  0.83294656  0.46744189  0.83310009    -0.01300
C1125       C  0.84624157  0.45008460  0.84638427     0.07300
C1126       C  0.86168486  0.46334690  0.86185413     0.05400
H1127       H  0.81897902  0.46396501  0.81910776     0.10500
H1128       H  0.87489134  0.45597219  0.87505015     0.09400
N1129       N  0.81948213  0.73195640  0.35220213    -0.25000
N1130       N  0.82964773  0.74200913  0.33221337    -0.32900
C1131       C  0.81930877  0.73163980  0.31196421     0.03300
C1132       C  0.80198672  0.71441728  0.31975112     0.09300
C1133       C  0.80252115  0.71504032  0.34525332    -0.03800
H1134       H  0.82404821  0.73630717  0.29302644     0.10000
H1135       H  0.79143675  0.70406072  0.35788464     0.11200
Cu1136     Cu  0.85711968  0.76941689  0.33314799     0.44200
Cu1137     Cu  0.82847612  0.74107214  0.38827819     0.42000
Cu1138     Cu  0.87511346  0.78748838  0.39521104     0.43900
N1139       N  0.88405045  0.79635464  0.34058240    -0.32400
N1140       N  0.89035939  0.80267491  0.36345023    -0.26700
C1141       C  0.90794570  0.82030484  0.36258948    -0.02800
C1142       C  0.91301616  0.82539595  0.33807423     0.09400
C1143       C  0.89760916  0.80995295  0.32448604     0.03200
H1144       H  0.91639905  0.82880232  0.37869522     0.10900
H1145       H  0.89632120  0.80868977  0.30449654     0.10000
N1146       N  0.85788776  0.77047550  0.42495574    -0.33900
N1147       N  0.84059590  0.75327488  0.42246457    -0.26100
C1148       C  0.83306923  0.74588036  0.44508494    -0.01300
C1149       C  0.84635648  0.75915902  0.46245627     0.07300
C1150       C  0.86189132  0.77455152  0.44921170     0.05400
H1151       H  0.81904456  0.73194040  0.44854547     0.10500
H1152       H  0.87511792  0.78772317  0.45660124     0.09400
N1153       N  0.81928000  0.73214553  0.64798001    -0.25000
N1154       N  0.82937065  0.74224877  0.66798372    -0.32900
C1155       C  0.81902285  0.73186375  0.68821743     0.03300
C1156       C  0.80177648  0.71457624  0.68040188     0.09300
C1157       C  0.80236075  0.71517959  0.65490142    -0.03800
H1158       H  0.82372088  0.73654805  0.70716280     0.10000
H1159       H  0.79135296  0.70413910  0.64225284     0.11200
Cu1160     Cu  0.85680094  0.76969494  0.66708362     0.44200
Cu1161     Cu  0.82834506  0.74122420  0.61191977     0.42000
Cu1162     Cu  0.87479906  0.78780053  0.60501816     0.43900
N1163       N  0.88374833  0.79661372  0.65966200    -0.32400
N1164       N  0.89004422  0.80295728  0.63679836    -0.26700
C1165       C  0.90767495  0.82054122  0.63767268    -0.02800
C1166       C  0.91279058  0.82557490  0.66219091     0.09400
C1167       C  0.89736281  0.81014811  0.67576840     0.03200
H1168       H  0.91614562  0.82902918  0.62157343     0.10900
H1169       H  0.89611150  0.80883918  0.69575697     0.10000
N1170       N  0.85769902  0.77068207  0.57525603    -0.33900
N1171       N  0.84048142  0.75340759  0.57774057    -0.26100
C1172       C  0.83303196  0.74593551  0.55511898    -0.01300
C1173       C  0.84629058  0.75924192  0.53775167     0.07300
C1174       C  0.86173096  0.77473014  0.55100079     0.05400
H1175       H  0.81907631  0.73192639  0.55165511     0.10500
H1176       H  0.87491326  0.78794604  0.54361493     0.09400
N1177       N  0.35215333  0.73208101  0.81947102    -0.25000
N1178       N  0.33216083  0.74212691  0.82963567    -0.32900
C1179       C  0.31191595  0.73174266  0.81930371     0.03300
C1180       C  0.31971015  0.71451772  0.80198738     0.09300
C1181       C  0.34521174  0.71515455  0.80251771    -0.03800
H1182       H  0.29297633  0.73639897  0.82404650     0.10000
H1183       H  0.35784751  0.70417480  0.79143849     0.11200
Cu1184     Cu  0.33308617  0.76953843  0.85710329     0.44200
Cu1185     Cu  0.38822435  0.74121198  0.82846262     0.42000
Cu1186     Cu  0.39514702  0.78765297  0.87507242     0.43900
N1187       N  0.34051498  0.79647588  0.88403502    -0.32400
N1188       N  0.36338107  0.80281425  0.89033200    -0.26700
C1189       C  0.36251558  0.82043254  0.90792958    -0.02800
C1190       C  0.33799921  0.82549656  0.91302014     0.09400
C1191       C  0.32441514  0.81005023  0.89761325     0.03200
H1192       H  0.37861892  0.82893620  0.91638122     0.10900
H1193       H  0.30442610  0.80876515  0.89634194     0.10000
N1194       N  0.42489588  0.77063074  0.85786377    -0.33900
N1195       N  0.42240722  0.75341836  0.84058339    -0.26100
C1196       C  0.44502808  0.74600617  0.83307694    -0.01300
C1197       C  0.46239747  0.75928600  0.84636480     0.07300
C1198       C  0.44915132  0.77469723  0.86187983     0.05400
H1199       H  0.44849017  0.73204881  0.81906998     0.10500
H1200       H  0.45653932  0.78786964  0.87510653     0.09400
N1201       N  0.64791018  0.73213690  0.81936138    -0.25000
N1202       N  0.66791673  0.74223842  0.82944802    -0.32900
C1203       C  0.68814753  0.73185838  0.81908985     0.03300
C1204       C  0.68032749  0.71457601  0.80184042     0.09300
C1205       C  0.65482706  0.71517681  0.80243416    -0.03800
H1206       H  0.70709410  0.73654241  0.82378317     0.10000
H1207       H  0.64217557  0.70413858  0.79142747     0.11200
Cu1208     Cu  0.66702557  0.76967600  0.85688671     0.44200
Cu1209     Cu  0.61185273  0.74121339  0.82844126     0.42000
Cu1210     Cu  0.60496850  0.78775613  0.87493290     0.43900
N1211       N  0.65961448  0.79658540  0.88384576    -0.32400
N1212       N  0.63675323  0.80291678  0.89016194    -0.26700
C1213       C  0.63763359  0.82050141  0.90779142    -0.02800
C1214       C  0.66215341  0.82554848  0.91288481     0.09400
C1215       C  0.67572564  0.81012888  0.89744542     0.03200
H1216       H  0.62153734  0.82898402  0.91627307     0.10900
H1217       H  0.69571370  0.80883327  0.89617388     0.10000
N1218       N  0.57520095  0.77066520  0.85781727    -0.33900
N1219       N  0.57767846  0.75340486  0.84058445    -0.26100
C1220       C  0.55505380  0.74596138  0.83311609    -0.01300
C1221       C  0.53769237  0.75927143  0.84637863     0.07300
C1222       C  0.55094772  0.77473235  0.86184051     0.05400
H1223       H  0.55158391  0.73197344  0.81914068     0.10500
H1224       H  0.54356754  0.78794755  0.87502664     0.09400
C1225       C  0.22886358  0.65181380  0.73929403     0.04500
C1226       C  0.23912032  0.64156087  0.76102292     0.04500
C1227       C  0.26081740  0.65185300  0.77131185     0.04500
C1228       C  0.27112747  0.67352851  0.76099315     0.04500
C1229       C  0.26087096  0.68377859  0.73926169     0.04500
C1230       C  0.23916562  0.67349445  0.72898251     0.04500
C1231       C  0.76081923  0.67347533  0.72890721     0.04500
C1232       C  0.73913510  0.68377360  0.73919960     0.04500
C1233       C  0.72883359  0.67347878  0.76088064     0.04500
C1234       C  0.73907166  0.65174092  0.77112986     0.04500
C1235       C  0.76075311  0.64142716  0.76082995     0.04500
C1236       C  0.77106340  0.65173762  0.73915171     0.04500
C1237       C  0.73918809  0.65180024  0.22890683     0.04500
C1238       C  0.72890203  0.67348608  0.23922331     0.04500
C1239       C  0.73920710  0.68375647  0.26092326     0.04500
C1240       C  0.76093772  0.67348600  0.27116134     0.04500
C1241       C  0.77123112  0.65180533  0.26083720     0.04500
C1242       C  0.76091700  0.64152827  0.23914468     0.04500
C1243       C  0.73896134  0.14143076  0.73903763     0.04500
C1244       C  0.76066850  0.15169968  0.72874407     0.04500
C1245       C  0.77095819  0.17341096  0.73901133     0.04500
C1246       C  0.76070240  0.18369227  0.76072764     0.04500
C1247       C  0.73898973  0.17343196  0.77101232     0.04500
C1248       C  0.72869665  0.15172089  0.76074823     0.04500
N1249       N  0.18082959  0.26467949  0.81968252    -0.25000
N1250       N  0.17071884  0.24468709  0.82978879    -0.32900
C1251       C  0.18098040  0.22443790  0.81934165     0.03300
C1252       C  0.19819019  0.23222789  0.80200884     0.09300
C1253       C  0.19767583  0.25773245  0.80265484    -0.03800
H1254       H  0.17624961  0.20549762  0.82401570     0.10000
H1255       H  0.20868228  0.27036711  0.79160021     0.11200
Cu1256     Cu  0.14337122  0.24561460  0.85732399     0.44200
Cu1257     Cu  0.17187694  0.30076473  0.82882369     0.42000
Cu1258     Cu  0.12583907  0.30769285  0.87579699     0.43900
N1259       N  0.11652669  0.25307147  0.88434398    -0.32400
N1260       N  0.11043080  0.27594719  0.89084442    -0.26700
C1261       C  0.09278540  0.27511270  0.90841141    -0.02800
C1262       C  0.08744540  0.25060694  0.91327128     0.09400
C1263       C  0.10275970  0.23699509  0.89775834     0.03200
H1264       H  0.08442699  0.29123180  0.91697565     0.10900
H1265       H  0.10380920  0.21700432  0.89628917     0.10000
N1266       N  0.14277123  0.33744610  0.85851274    -0.33900
N1267       N  0.15981493  0.33496024  0.84107022    -0.26100
C1268       C  0.16710131  0.35758612  0.83344679    -0.01300
C1269       C  0.15392129  0.37495415  0.84683487     0.07300
C1270       C  0.13869353  0.36170145  0.86252267     0.05400
H1271       H  0.18087102  0.36105273  0.81925906     0.10500
H1272       H  0.12559397  0.36908470  0.87582040     0.09400
N1273       N  0.18030978  0.56052121  0.81922597    -0.25000
N1274       N  0.17015082  0.58051153  0.82928546    -0.32900
C1275       C  0.18056416  0.60076310  0.81899671     0.03300
C1276       C  0.19793041  0.59297677  0.80182042     0.09300
C1277       C  0.19734019  0.56747140  0.80238382    -0.03800
H1278       H  0.17584854  0.61970220  0.82369071     0.10000
H1279       H  0.20843878  0.55483925  0.79141897     0.11200
Cu1280     Cu  0.14259653  0.57957122  0.85660343     0.44200
Cu1281     Cu  0.17123163  0.52444338  0.82826378     0.42000
Cu1282     Cu  0.12419463  0.51750022  0.87427050     0.43900
N1283       N  0.11555182  0.57213765  0.88341959    -0.32400
N1284       N  0.10906761  0.54927071  0.88956658    -0.26700
C1285       C  0.09147568  0.55013753  0.90718717    -0.02800
C1286       C  0.08658744  0.57465514  0.91245473     0.09400
C1287       C  0.10210662  0.58823837  0.89712533     0.03200
H1288       H  0.08292113  0.53403373  0.91558488     0.10900
H1289       H  0.10356497  0.60822743  0.89602908     0.10000
N1290       N  0.14158403  0.48775464  0.85741716    -0.33900
N1291       N  0.15904245  0.49025230  0.84039042    -0.26100
C1292       C  0.16671947  0.46763357  0.83314087    -0.01300
C1293       C  0.15335306  0.45025502  0.84632605     0.07300
C1294       C  0.13761908  0.46349484  0.86151948     0.05400
H1295       H  0.18092080  0.46417896  0.81938219     0.10500
H1296       H  0.12431140  0.45609980  0.87460229     0.09400
C1297       C  0.26084228  0.14143484  0.73915697     0.04500
C1298       C  0.23911277  0.15166123  0.72886686     0.04500
C1299       C  0.22877262  0.17334338  0.73914759     0.04500
C1300       C  0.23904418  0.18367061  0.76083822     0.04500
C1301       C  0.26078308  0.17345601  0.77111130     0.04500
C1302       C  0.27110803  0.15176244  0.76084986     0.04500
C1303       C  0.26091258  0.68388798  0.26098904     0.04500
C1304       C  0.23921185  0.67357963  0.27126169     0.04500
C1305       C  0.22895025  0.65187001  0.26096198     0.04500
C1306       C  0.23922173  0.64162925  0.23923676     0.04500
C1307       C  0.26094867  0.65189776  0.22899769     0.04500
C1308       C  0.27121787  0.67360662  0.23929083     0.04500
C1309       C  0.73905099  0.14142366  0.26085209     0.04500
C1310       C  0.72877823  0.15167255  0.23912448     0.04500
C1311       C  0.73907618  0.17335770  0.22880810     0.04500
C1312       C  0.76076180  0.18366920  0.23910619     0.04500
C1313       C  0.77101334  0.17343645  0.26084684     0.04500
C1314       C  0.76073993  0.15173516  0.27114315     0.04500
N1315       N  0.18033585  0.09352995  0.35200787    -0.25000
N1316       N  0.17026076  0.08341019  0.33200355    -0.32900
C1317       C  0.18066523  0.09374192  0.31176988     0.03300
C1318       C  0.19793454  0.11100975  0.31958306     0.09300
C1319       C  0.19730130  0.11045127  0.34508492    -0.03800
H1320       H  0.17599232  0.08903272  0.29282450     0.10000
H1321       H  0.20830920  0.12149137  0.35773372     0.11200
Cu1322     Cu  0.14278717  0.05599330  0.33289637     0.44200
Cu1323     Cu  0.17120227  0.08452240  0.38807623     0.42000
Cu1324     Cu  0.12462971  0.03806776  0.39495551     0.43900
N1325       N  0.11582376  0.02907811  0.34032216    -0.32400
N1326       N  0.10946495  0.02281415  0.36319010    -0.26700
C1327       C  0.09187743  0.00518684  0.36233347    -0.02800
C1328       C  0.08685317  0.00003656  0.33782163     0.09400
C1329       C  0.10229171  0.01544313  0.32422870     0.03200
H1330       H  0.08339171  0.99673056  0.37844151     0.10900
H1331       H  0.10362010  0.01665511  0.30423902     0.10000
N1332       N  0.14176275  0.05512739  0.42472532    -0.33900
N1333       N  0.15903116  0.07235304  0.42225554    -0.26100
C1334       C  0.16655560  0.07972583  0.44488587    -0.01300
C1335       C  0.15329019  0.06640662  0.46224049     0.07300
C1336       C  0.13777143  0.05101239  0.44897545     0.05400
H1337       H  0.18059571  0.09364650  0.44836456     0.10500
H1338       H  0.12459476  0.03778263  0.45634669     0.09400
N1339       N  0.18075789  0.09302145  0.64778860    -0.25000
N1340       N  0.17066463  0.08289903  0.66777875    -0.32900
C1341       C  0.18099350  0.09328037  0.68802737     0.03300
C1342       C  0.19823375  0.11058610  0.68024153     0.09300
C1343       C  0.19766083  0.10999786  0.65473715    -0.03800
H1344       H  0.17629501  0.08857233  0.70696528     0.10000
H1345       H  0.20867436  0.12104743  0.64210481     0.11200
Cu1346     Cu  0.14327534  0.05540579  0.66684451     0.44200
Cu1347     Cu  0.17172393  0.08391769  0.61171407     0.42000
Cu1348     Cu  0.12534652  0.03722499  0.60478834     0.43900
N1349       N  0.11637264  0.02843364  0.65942332    -0.32400
N1350       N  0.11010248  0.02205973  0.63655953    -0.26700
C1351       C  0.09247766  0.00446890  0.63743116    -0.02800
C1352       C  0.08733890  0.99946167  0.66194922     0.09400
C1353       C  0.10274735  0.01491158  0.67552776     0.03200
H1354       H  0.08401379  0.99597184  0.62133073     0.10900
H1355       H  0.10396581  0.01625636  0.69551629     0.10000
N1356       N  0.14240177  0.05440320  0.57504077    -0.33900
N1357       N  0.15958405  0.07171411  0.57752986    -0.26100
C1358       C  0.16695815  0.07925627  0.55490801    -0.01300
C1359       C  0.15368820  0.06595891  0.53753778     0.07300
C1360       C  0.13831913  0.05040225  0.55078482     0.05400
H1361       H  0.18084832  0.09332968  0.55144542     0.10500
H1362       H  0.12512732  0.03719452  0.54339739     0.09400
C1363       C  0.27095133  0.15204004  0.23907343     0.04500
C1364       C  0.26066005  0.14173698  0.26076167     0.04500
C1365       C  0.23897285  0.15203289  0.27106223     0.04500
C1366       C  0.22871806  0.17377038  0.26081776     0.04500
C1367       C  0.23901329  0.18408050  0.23912979     0.04500
C1368       C  0.26070042  0.17377772  0.22882638     0.04500
C1369       C  0.22574082  0.13879582  0.29035737    -0.11000
C1370       C  0.21337894  0.12643447  0.30430266    -0.12600
C1371       C  0.15520775  0.06776668  0.51105369    -0.11000
C1372       C  0.15508544  0.06790763  0.48872669    -0.12600
C1373       C  0.22593788  0.13841260  0.70953569    -0.11000
C1374       C  0.21362331  0.12604108  0.69555299    -0.12600
C1375       C  0.22580087  0.20297011  0.77406038    -0.11000
C1376       C  0.21350273  0.21692610  0.78647391    -0.12600
C1377       C  0.15539405  0.40144141  0.84500032    -0.11000
C1378       C  0.15522166  0.42376999  0.84485251    -0.12600
C1379       C  0.22588188  0.62225277  0.77423594    -0.11000
C1380       C  0.21346375  0.60828523  0.78651509    -0.12600
C1381       C  0.69560068  0.69910585  0.78644279    -0.11000
C1382       C  0.70954171  0.68671927  0.77410654    -0.12600
C1383       C  0.30441216  0.69909985  0.78655495    -0.11000
C1384       C  0.29044684  0.68675311  0.77420076    -0.12600
C1385       C  0.48888114  0.75763376  0.84469366    -0.11000
C1386       C  0.51120808  0.75762892  0.84470111    -0.12600
C1387       C  0.77405180  0.68671287  0.70961827    -0.11000
C1388       C  0.78638683  0.69910142  0.69567808    -0.12600
C1389       C  0.78653862  0.69902067  0.30444645    -0.11000
C1390       C  0.77416828  0.68669212  0.29047874    -0.12600
C1391       C  0.84465553  0.75753610  0.48894037    -0.11000
C1392       C  0.84463924  0.75756168  0.51126761    -0.12600
C1393       C  0.77393266  0.62206704  0.77401868    -0.11000
C1394       C  0.78626236  0.60808061  0.78636351    -0.12600
C1395       C  0.78637716  0.21685481  0.78635427    -0.11000
C1396       C  0.77397756  0.20295351  0.77397656    -0.12600
C1397       C  0.84467115  0.40126916  0.84470055    -0.11000
C1398       C  0.84462316  0.42359744  0.84470639    -0.12600
C1399       C  0.22596225  0.68669890  0.70964696    -0.11000
C1400       C  0.21362620  0.69906128  0.69568083    -0.12600
C1401       C  0.21353543  0.69910366  0.30449895    -0.11000
C1402       C  0.22595128  0.68678554  0.29056076    -0.12600
C1403       C  0.15521688  0.75747748  0.51125449    -0.11000
C1404       C  0.15523645  0.75752460  0.48892711    -0.12600
C1405       C  0.78628663  0.12606830  0.69554426    -0.11000
C1406       C  0.77390435  0.13844305  0.70946242    -0.12600
C1407       C  0.77396209  0.13854200  0.29047546    -0.11000
C1408       C  0.78632463  0.12620030  0.30443783    -0.12600
C1409       C  0.84509614  0.06804793  0.48884273    -0.11000
C1410       C  0.84507240  0.06799688  0.51117070    -0.12600
C1411       C  0.78636952  0.60825439  0.21345081    -0.11000
C1412       C  0.77410764  0.62221972  0.22588719    -0.12600
C1413       C  0.77400496  0.20296816  0.22588534    -0.11000
C1414       C  0.78643825  0.21692061  0.21360428    -0.12600
C1415       C  0.84482670  0.42375017  0.15534016    -0.11000
C1416       C  0.84501804  0.40142283  0.15555637    -0.12600
C1417       C  0.69560170  0.69908153  0.21371144    -0.11000
C1418       C  0.70956724  0.68670939  0.22603819    -0.12600
C1419       C  0.30445164  0.69917560  0.21365921    -0.11000
C1420       C  0.29051677  0.68684087  0.22606090    -0.12600
C1421       C  0.51118047  0.75739465  0.15518198    -0.11000
C1422       C  0.48885378  0.75746079  0.15520992    -0.12600
C1423       C  0.69549741  0.12612982  0.78640987    -0.11000
C1424       C  0.70941627  0.13848789  0.77401101    -0.12600
C1425       C  0.30440878  0.12625963  0.78645671    -0.11000
C1426       C  0.29044444  0.13859132  0.77408707    -0.12600
C1427       C  0.48879503  0.06798259  0.84513056    -0.11000
C1428       C  0.51112268  0.06793523  0.84509994    -0.12600
C1429       C  0.69545179  0.12609147  0.21360946    -0.11000
C1430       C  0.70944277  0.13844706  0.22593121    -0.12600
C1431       C  0.30418480  0.12644947  0.21346457    -0.11000
C1432       C  0.29024332  0.13880895  0.22583189    -0.12600
C1433       C  0.48859757  0.06779179  0.15529213    -0.11000
C1434       C  0.51092454  0.06765953  0.15540471    -0.12600
C1435       C  0.21354726  0.60854993  0.21350437    -0.11000
C1436       C  0.22594552  0.62241028  0.22592878    -0.12600
C1437       C  0.21346954  0.21742271  0.21360669    -0.11000
C1438       C  0.22581590  0.20343607  0.22594062    -0.12600
C1439       C  0.15499961  0.40188317  0.15524116    -0.11000
C1440       C  0.15501380  0.42421218  0.15520756    -0.12600
C1441       C  0.28636145  0.19927739  0.19556010    -0.11000
C1442       C  0.27394136  0.18699107  0.20952071    -0.12600
C1443       C  0.28628291  0.19918847  0.80432379    -0.11000
C1444       C  0.27398658  0.18674484  0.79039195    -0.12600
C1445       C  0.34477783  0.25744600  0.98874982    -0.11000
C1446       C  0.34494740  0.25729007  0.01107550    -0.12600
C1447       C  0.20941334  0.18697786  0.27406541    -0.11000
C1448       C  0.19545422  0.19926697  0.28648417    -0.12600
C1449       C  0.80421125  0.19914867  0.28639023    -0.11000
C1450       C  0.79028466  0.18671280  0.27407878    -0.12600
C1451       C  0.98864687  0.25747296  0.34483831    -0.11000
C1452       C  0.01097302  0.25733269  0.34500619    -0.12600
C1453       C  0.28620833  0.10840043  0.28628141    -0.11000
C1454       C  0.27385854  0.12238343  0.27394983    -0.12600
C1455       C  0.28646098  0.71717034  0.28659176    -0.11000
C1456       C  0.27411649  0.70320965  0.27422372    -0.12600
C1457       C  0.34476692  0.90163881  0.34489528    -0.11000
C1458       C  0.34473601  0.92396771  0.34481982    -0.12600
C1459       C  0.28658355  0.62622541  0.19584662    -0.11000
C1460       C  0.27421464  0.63863409  0.20974423    -0.12600
C1461       C  0.28636918  0.62634366  0.80464810    -0.11000
C1462       C  0.27401191  0.63866536  0.79066494    -0.12600
C1463       C  0.34475960  0.56787293  0.01141414    -0.11000
C1464       C  0.34466077  0.56781490  0.98908725    -0.12600
C1465       C  0.72588393  0.18653919  0.20944769    -0.11000
C1466       C  0.71354313  0.19886947  0.19545605    -0.12600
C1467       C  0.71341170  0.19911286  0.80419892    -0.11000
C1468       C  0.72575902  0.18670191  0.79028466    -0.12600
C1469       C  0.65505978  0.25721007  0.98864840    -0.11000
C1470       C  0.65501826  0.25710416  0.01097480    -0.12600
C1471       C  0.28649251  0.10817971  0.71363214    -0.11000
C1472       C  0.27410440  0.12213232  0.72595945    -0.12600
C1473       C  0.27411472  0.70305769  0.72601341    -0.11000
C1474       C  0.28647489  0.71699087  0.71363721    -0.12600
C1475       C  0.34465493  0.90141536  0.65504066    -0.11000
C1476       C  0.34449933  0.92374286  0.65487777    -0.12600
C1477       C  0.19542884  0.19882493  0.71357481    -0.11000
C1478       C  0.20941626  0.18650690  0.72593230    -0.12600
C1479       C  0.80414709  0.19905366  0.71339450    -0.11000
C1480       C  0.79022979  0.18665778  0.72575451    -0.12600
C1481       C  0.98861984  0.25714519  0.65508273    -0.11000
C1482       C  0.01094653  0.25704741  0.65505228    -0.12600
C1483       C  0.72583624  0.12211685  0.27408921    -0.11000
C1484       C  0.71349048  0.10816321  0.28645699    -0.12600
C1485       C  0.71363456  0.71698190  0.28656003    -0.11000
C1486       C  0.72598624  0.70304335  0.27418197    -0.12600
C1487       C  0.65510344  0.90140590  0.34480492    -0.11000
C1488       C  0.65488762  0.92373225  0.34460108    -0.12600
C1489       C  0.19580438  0.62614491  0.28654777    -0.11000
C1490       C  0.20969887  0.63857530  0.27419793    -0.12600
C1491       C  0.79058751  0.63860177  0.27401206    -0.11000
C1492       C  0.80457630  0.62628019  0.28636365    -0.12600
C1493       C  0.98903982  0.56793329  0.34478383    -0.11000
C1494       C  0.01136687  0.56797936  0.34486937    -0.12600
C1495       C  0.72595973  0.63857428  0.20960204    -0.11000
C1496       C  0.71367488  0.62614454  0.19564927    -0.12600
C1497       C  0.71336781  0.62629111  0.80438996    -0.11000
C1498       C  0.72581913  0.63854268  0.79043140    -0.12600
C1499       C  0.65540183  0.56775249  0.01120228    -0.11000
C1500       C  0.65502442  0.56812592  0.98888235    -0.12600
C1501       C  0.20955859  0.63856973  0.72608676    -0.11000
C1502       C  0.19560875  0.62612781  0.71381220    -0.12600
C1503       C  0.80433532  0.62628217  0.71346675    -0.11000
C1504       C  0.79037082  0.63853651  0.72590945    -0.12600
C1505       C  0.98884886  0.56816731  0.65512472    -0.11000
C1506       C  0.01116841  0.56778717  0.65550868    -0.12600
C1507       C  0.72570592  0.12214520  0.72580794    -0.11000
C1508       C  0.71332614  0.10821483  0.71344448    -0.12600
C1509       C  0.71359405  0.71706974  0.71364733    -0.11000
C1510       C  0.72594154  0.70311167  0.72599979    -0.12600
C1511       C  0.65513799  0.90140940  0.65511701    -0.11000
C1512       C  0.65510456  0.92373755  0.65511154    -0.12600
C1513       C  0.94642374  0.85899407  0.32543319    -0.11000
C1514       C  0.93084335  0.84332775  0.32931747    -0.12600
C1515       C  0.06920431  0.84346412  0.32929067    -0.11000
C1516       C  0.05358587  0.85909477  0.32541599    -0.12600
C1517       C  0.94632947  0.96627732  0.32526291    -0.11000
C1518       C  0.93072923  0.98193001  0.32911933    -0.12600
C1519       C  0.05347076  0.96639037  0.32524108    -0.11000
C1520       C  0.06904246  0.98207771  0.32908107    -0.12600
C1521       C  0.94635393  0.85901799  0.67481910    -0.11000
C1522       C  0.93070472  0.84341558  0.67095589    -0.12600
C1523       C  0.94643549  0.96623209  0.67471530    -0.11000
C1524       C  0.93082433  0.98187343  0.67085485    -0.12600
C1525       C  0.05362347  0.85898209  0.67474627    -0.11000
C1526       C  0.06929569  0.84339931  0.67090029    -0.12600
C1527       C  0.05370366  0.96609989  0.67460971    -0.11000
C1528       C  0.06938573  0.98166183  0.67071676    -0.12600
C1529       C  0.32535088  0.85904602  0.94647251    -0.11000
C1530       C  0.32923806  0.84339995  0.93087292    -0.12600
C1531       C  0.32919680  0.84348018  0.06927430    -0.11000
C1532       C  0.32531666  0.85910756  0.05365448    -0.12600
C1533       C  0.32517313  0.96630886  0.94642300    -0.11000
C1534       C  0.32903824  0.98195954  0.93082360    -0.12600
C1535       C  0.32895583  0.98206919  0.06914844    -0.11000
C1536       C  0.32512219  0.96639022  0.05356734    -0.12600
C1537       C  0.94636480  0.23792645  0.94639237    -0.11000
C1538       C  0.93074952  0.24174527  0.93074391    -0.12600
C1539       C  0.06938735  0.24188676  0.93098708    -0.11000
C1540       C  0.05365352  0.23804718  0.94650830    -0.12600
C1541       C  0.94645351  0.23804376  0.05373376    -0.11000
C1542       C  0.93095581  0.24188128  0.06949123    -0.12600
C1543       C  0.05355191  0.23819608  0.05365005    -0.11000
C1544       C  0.06915956  0.24210520  0.06928327    -0.12600
C1545       C  0.67478397  0.85901183  0.94642523    -0.11000
C1546       C  0.67092346  0.84340067  0.93078440    -0.12600
C1547       C  0.67465428  0.96624099  0.94651093    -0.11000
C1548       C  0.67080059  0.98189032  0.93090640    -0.12600
C1549       C  0.67466231  0.85897318  0.05367864    -0.11000
C1550       C  0.67081873  0.84338125  0.06934201    -0.12600
C1551       C  0.67448507  0.96610106  0.05376522    -0.11000
C1552       C  0.67058019  0.98166299  0.06944429    -0.12600
C1553       C  0.93058070  0.58321649  0.93068190    -0.11000
C1554       C  0.94621417  0.58709291  0.94629730    -0.12600
C1555       C  0.94611272  0.58727912  0.05338790    -0.11000
C1556       C  0.93036671  0.58339227  0.06888400    -0.12600
C1557       C  0.05334413  0.58730055  0.94620707    -0.11000
C1558       C  0.06886393  0.58341793  0.93048338    -0.12600
C1559       C  0.05345740  0.58756621  0.05349991    -0.11000
C1560       C  0.06910644  0.58377871  0.06912204    -0.12600
C1561       C  0.44626858  0.35914028  0.82533344    -0.11000
C1562       C  0.43056666  0.34358454  0.82916492    -0.12600
C1563       C  0.56923644  0.34364752  0.82918039    -0.11000
C1564       C  0.55357366  0.35924584  0.82535285    -0.12600
C1565       C  0.44619573  0.46630306  0.82550110    -0.11000
C1566       C  0.43057040  0.48192333  0.82938187    -0.12600
C1567       C  0.56871943  0.48235889  0.82935955    -0.11000
C1568       C  0.55325927  0.46656996  0.82549844    -0.12600
C1569       C  0.44647609  0.35903143  0.17455044    -0.11000
C1570       C  0.43091194  0.34334572  0.17068240    -0.12600
C1571       C  0.44665212  0.46629485  0.17470294    -0.11000
C1572       C  0.43102099  0.48192844  0.17089030    -0.12600
C1573       C  0.56914675  0.34310223  0.17059039    -0.11000
C1574       C  0.55359091  0.35879588  0.17445635    -0.12600
C1575       C  0.55402605  0.46590609  0.17459332    -0.11000
C1576       C  0.56983862  0.48134595  0.17074711    -0.12600
C1577       C  0.82526026  0.35916131  0.44633513    -0.11000
C1578       C  0.82907924  0.34359915  0.43063591    -0.12600
C1579       C  0.82916193  0.34365881  0.56929722    -0.11000
C1580       C  0.82532902  0.35925947  0.55363746    -0.12600
C1581       C  0.82546082  0.46633960  0.44627785    -0.11000
C1582       C  0.82934515  0.48197160  0.43066461    -0.12600
C1583       C  0.82549078  0.46658699  0.55333538    -0.11000
C1584       C  0.82935270  0.48237500  0.56879681    -0.12600
C1585       C  0.43080732  0.74197674  0.43089843    -0.11000
C1586       C  0.44644251  0.73807698  0.44650480    -0.12600
C1587       C  0.56935805  0.74175578  0.43093770    -0.11000
C1588       C  0.55370022  0.73790174  0.44653136    -0.12600
C1589       C  0.44646504  0.73790896  0.55371564    -0.11000
C1590       C  0.43084656  0.74176362  0.56934852    -0.12600
C1591       C  0.56929352  0.74161256  0.56931853    -0.11000
C1592       C  0.55366289  0.73775874  0.55369890    -0.12600
C1593       C  0.17058925  0.34338757  0.43098406    -0.11000
C1594       C  0.17446130  0.35906654  0.44655410    -0.12600
C1595       C  0.17081367  0.48194462  0.43108881    -0.11000
C1596       C  0.17462186  0.46631766  0.44672839    -0.12600
C1597       C  0.17439660  0.35881728  0.55367248    -0.11000
C1598       C  0.17053921  0.34311938  0.56922682    -0.12600
C1599       C  0.17453722  0.46592662  0.55411992    -0.11000
C1600       C  0.17069661  0.48136189  0.56993856    -0.12600
C1601       C  0.44619417  0.08748946  0.44624094    -0.11000
C1602       C  0.43057199  0.08366936  0.43060108    -0.12600
C1603       C  0.44618256  0.08732707  0.55344510    -0.11000
C1604       C  0.43053107  0.08344731  0.56903917    -0.12600
C1605       C  0.56893111  0.08343115  0.43052765    -0.11000
C1606       C  0.55336017  0.08731322  0.44620161    -0.12600
C1607       C  0.56902050  0.08331226  0.56909465    -0.11000
C1608       C  0.55340491  0.08719242  0.55346361    -0.12600
loop_ 
_geom_bond_atom_site_label_1 
_geom_bond_atom_site_label_2 
_geom_bond_distance 
_geom_bond_site_symmetry_2 
_ccdc_geom_bond_type 
O1           Cu9   2.007       .  S
O1           C11   1.276       .  A
O2           Cu9   2.007       .  S
O2           C12   1.276       .  A
O3           Cu9   2.007       .  S
O3           C13   1.276       .  A
O4           Cu9   2.007       .  S
O4           C14   1.276       .  A
O5          Cu10   2.027       .  S
O5           C14   1.278       .  A
O6          Cu10   2.027       .  S
O6           C13   1.278       .  A
O7          Cu10   2.028       .  S
O7           C12   1.278       .  A
O8          Cu10   2.028       .  S
O8           C11   1.278       .  A
Cu9         Cu10   2.377       .  S
C11        C1606   1.441       .  S
C12        C1603   1.441       .  S
C13        C1601   1.441       .  S
C14        C1608   1.441       .  S
O15         Cu23   2.007       .  S
O15          C25   1.276       .  A
O16         Cu23   2.007       .  S
O16          C26   1.276       .  A
O17         Cu23   2.007       .  S
O17          C27   1.276       .  A
O18         Cu23   2.007       .  S
O18          C28   1.276       .  A
O19         Cu24   2.027       .  S
O19          C28   1.278       .  A
O20         Cu24   2.027       .  S
O20          C27   1.278       .  A
O21         Cu24   2.028       .  S
O21          C26   1.278       .  A
O22         Cu24   2.027       .  S
O22          C25   1.278       .  A
Cu23        Cu24   2.377       .  S
C25        C1597   1.441       .  S
C26        C1596   1.441       .  S
C27        C1594   1.441       .  S
C28        C1599   1.441       .  S
O29         Cu37   2.027       .  S
O29          C39   1.278       .  A
O30         Cu37   2.028       .  S
O30          C40   1.278       .  A
O31         Cu37   2.027       .  S
O31          C41   1.278       .  A
O32         Cu37   2.027       .  S
O32          C42   1.278       .  A
O33         Cu38   2.007       .  S
O33          C42   1.276       .  A
O34         Cu38   2.007       .  S
O34          C41   1.276       .  A
O35         Cu38   2.007       .  S
O35          C40   1.276       .  A
O36         Cu38   2.007       .  S
O36          C39   1.276       .  A
Cu37        Cu38   2.377       .  S
C39        C1592   1.441       .  S
C40        C1586   1.441       .  S
C41        C1588   1.441       .  S
C42        C1589   1.441       .  S
O43         Cu51   2.007       .  S
O43          C53   1.276       .  A
O44         Cu51   2.007       .  S
O44          C54   1.276       .  A
O45         Cu51   2.007       .  S
O45          C55   1.276       .  A
O46         Cu51   2.007       .  S
O46          C56   1.276       .  A
O47         Cu52   2.027       .  S
O47          C56   1.278       .  A
O48         Cu52   2.027       .  S
O48          C55   1.278       .  A
O49         Cu52   2.028       .  S
O49          C54   1.278       .  A
O50         Cu52   2.028       .  S
O50          C53   1.278       .  A
Cu51        Cu52   2.377       .  S
C53        C1580   1.441       .  S
C54        C1581   1.441       .  S
C55        C1583   1.441       .  S
C56        C1577   1.441       .  S
O57         Cu65   2.007       .  S
O57          C67   1.276       .  A
O58         Cu65   2.007       .  S
O58          C68   1.276       .  A
O59         Cu65   2.007       .  S
O59          C69   1.276       .  A
O60         Cu65   2.007       .  S
O60          C70   1.276       .  A
O61         Cu66   2.027       .  S
O61          C70   1.278       .  A
O62         Cu66   2.028       .  S
O62          C69   1.278       .  A
O63         Cu66   2.027       .  S
O63          C68   1.278       .  A
O64         Cu66   2.027       .  S
O64          C67   1.278       .  A
Cu65        Cu66   2.377       .  S
C67        C1575   1.441       .  S
C68        C1569   1.441       .  S
C69        C1571   1.441       .  S
C70        C1574   1.441       .  S
O71         Cu79   2.028       .  S
O71          C81   1.278       .  A
O72         Cu79   2.027       .  S
O72          C82   1.278       .  A
O73         Cu79   2.027       .  S
O73          C83   1.278       .  A
O74         Cu79   2.027       .  S
O74          C84   1.278       .  A
O75         Cu80   2.007       .  S
O75          C84   1.276       .  A
O76         Cu80   2.007       .  S
O76          C83   1.276       .  A
O77         Cu80   2.007       .  S
O77          C82   1.276       .  A
O78         Cu80   2.007       .  S
O78          C81   1.276       .  A
Cu79        Cu80   2.377       .  S
C81        C1564   1.441       .  S
C82        C1565   1.441       .  S
C83        C1568   1.441       .  S
C84        C1561   1.441       .  S
O85         Cu93   2.028   1_455  S
O85          C95   1.278       .  A
O86         Cu93   2.028   1_554  S
O86          C96   1.278       .  A
O87         Cu93   2.028   1_454  S
O87          C97   1.278       .  A
O88         Cu93   2.027       .  S
O88          C98   1.278       .  A
O89         Cu94   2.007       .  S
O89          C98   1.276       .  A
O90         Cu94   2.007   1_454  S
O90          C97   1.276       .  A
O91         Cu94   2.007   1_554  S
O91          C96   1.276       .  A
O92         Cu94   2.007   1_455  S
O92          C95   1.276       .  A
Cu93        Cu94   2.377       .  S
C95        C1557   1.441       .  S
C96        C1555   1.441       .  S
C97        C1559   1.441       .  S
C98        C1554   1.441       .  S
O99        Cu107   2.027   1_556  S
O99         C109   1.278       .  A
O100       Cu107   2.027       .  S
O100        C110   1.278       .  A
O101       Cu107   2.027       .  S
O101        C111   1.278       .  A
O102       Cu107   2.028   1_556  S
O102        C112   1.278       .  A
O103       Cu108   2.007   1_556  S
O103        C112   1.276       .  A
O104       Cu108   2.007       .  S
O104        C111   1.276       .  A
O105       Cu108   2.007       .  S
O105        C110   1.276       .  A
O106       Cu108   2.007   1_556  S
O106        C109   1.276       .  A
Cu107      Cu108   2.377       .  S
C109       C1545   1.441       .  S
C110       C1551   1.441       .  S
C111       C1549   1.441       .  S
C112       C1547   1.441       .  S
O113       Cu121   2.007   1_456  S
O113        C123   1.276       .  A
O114       Cu121   2.007       .  S
O114        C124   1.276       .  A
O115       Cu121   2.007   1_455  S
O115        C125   1.276       .  A
O116       Cu121   2.007   1_556  S
O116        C126   1.276       .  A
O117       Cu122   2.028   1_556  S
O117        C126   1.278       .  A
O118       Cu122   2.028   1_455  S
O118        C125   1.278       .  A
O119       Cu122   2.027       .  S
O119        C124   1.278       .  A
O120       Cu122   2.027   1_456  S
O120        C123   1.278       .  A
Cu121      Cu122   2.377       .  S
C123       C1540   1.441       .  S
C124       C1541   1.441       .  S
C125       C1543   1.441       .  S
C126       C1537   1.441       .  S
O127       Cu135   2.027       .  S
O127        C137   1.278       .  A
O128       Cu135   2.027   1_556  S
O128        C138   1.278       .  A
O129       Cu135   2.028       .  S
O129        C139   1.278       .  A
O130       Cu135   2.028   1_556  S
O130        C140   1.278       .  A
O131       Cu136   2.007   1_556  S
O131        C140   1.276       .  A
O132       Cu136   2.007       .  S
O132        C139   1.276       .  A
O133       Cu136   2.007   1_556  S
O133        C138   1.276       .  A
O134       Cu136   2.007       .  S
O134        C137   1.276       .  A
Cu135      Cu136   2.377       .  S
C137       C1536   1.441       .  S
C138       C1529   1.441       .  S
C139       C1532   1.441       .  S
C140       C1533   1.441       .  S
O141       Cu149   2.007       .  S
O141        C151   1.276       .  A
O142       Cu149   2.007   1_455  S
O142        C152   1.276       .  A
O143       Cu149   2.007   1_455  S
O143        C153   1.276       .  A
O144       Cu149   2.007       .  S
O144        C154   1.276       .  A
O145       Cu150   2.028   1_655  S
O145        C154   1.278       .  A
O146       Cu150   2.027       .  S
O146        C153   1.278       .  A
O147       Cu150   2.027       .  S
O147        C152   1.278       .  A
O148       Cu150   2.027   1_655  S
O148        C151   1.278       .  A
Cu149      Cu150   2.377   1_655  S
C151       C1521   1.441       .  S
C152       C1527   1.441       .  S
C153       C1525   1.441       .  S
C154       C1523   1.441       .  S
O155       Cu163   2.028       .  S
O155        C165   1.278       .  A
O156       Cu163   2.028   1_455  S
O156        C166   1.278       .  A
O157       Cu163   2.027       .  S
O157        C167   1.278       .  A
O158       Cu163   2.027   1_455  S
O158        C168   1.278       .  A
O159       Cu164   2.007   1_455  S
O159        C168   1.276       .  A
O160       Cu164   2.007       .  S
O160        C167   1.276       .  A
O161       Cu164   2.007   1_455  S
O161        C166   1.276       .  A
O162       Cu164   2.007       .  S
O162        C165   1.276       .  A
Cu163      Cu164   2.377       .  S
C165       C1517   1.441       .  S
C166       C1516   1.441       .  S
C167       C1513   1.441       .  S
C168       C1519   1.441       .  S
N169        N170   1.325       .  A
N169        C173   1.344       .  A
N169       Cu177   2.063       .  S
N170        C171   1.347       .  A
N170       Cu176   2.092       .  S
C171        C172   1.382       .  A
C171        H174   1.082       .  S
C172       C1509   1.436       .  S
C172        C173   1.375       .  A
C173        H175   1.082       .  S
Cu176       N179   2.092       .  S
Cu177       N187   2.062       .  S
Cu178       N180   2.068       .  S
Cu178       N186   2.067       .  S
N179        N180   1.323       .  A
N179        C183   1.351       .  A
N180        C181   1.343       .  A
C181        C182   1.377       .  A
C181        H184   1.082       .  S
C182       C1591   1.442       .  S
C182        C183   1.385       .  A
C183        H185   1.082       .  S
N186        N187   1.321       .  A
N186        C190   1.343       .  A
N187        C188   1.345       .  A
C188        C189   1.379       .  A
C188        H191   1.082       .  S
C189       C1511   1.433       .  S
C189        C190   1.378       .  A
C190        H192   1.082       .  S
N193        N194   1.325       .  A
N193        C197   1.344       .  A
N193       Cu201   2.063       .  S
N194        C195   1.347       .  A
N194       Cu200   2.093       .  S
C195        C196   1.382       .  A
C195        H198   1.082       .  S
C196       C1508   1.436       .  S
C196        C197   1.375       .  A
C197        H199   1.082       .  S
Cu200       N203   2.092       .  S
Cu201       N211   2.063   1_545  S
Cu202       N204   2.068       .  S
Cu202       N210   2.067   1_545  S
N203        N204   1.323       .  A
N203        C207   1.351       .  A
N204        C205   1.343       .  A
C205        C206   1.377       .  A
C205        H208   1.082       .  S
C206       C1607   1.442       .  S
C206        C207   1.385       .  A
C207        H209   1.082       .  S
N210        N211   1.321       .  A
N210        C214   1.343       .  A
N211        C212   1.345       .  A
C212        C213   1.379       .  A
C212        H215   1.082       .  S
C213       C1512   1.433       .  S
C213        C214   1.378       .  A
C214        H216   1.082       .  S
N217        N218   1.325       .  A
N217        C221   1.344       .  A
N217       Cu225   2.063       .  S
N218        C219   1.347       .  A
N218       Cu224   2.092       .  S
C219        C220   1.382       .  A
C219        H222   1.082       .  S
C220       C1503   1.436       .  S
C220        C221   1.375       .  A
C221        H223   1.082       .  S
Cu224       N227   2.092       .  S
Cu225       N235   2.063       .  S
Cu226       N228   2.068       .  S
Cu226       N234   2.067       .  S
N227        N228   1.323       .  A
N227        C231   1.351       .  A
N228        C229   1.343       .  A
C229        C230   1.377       .  A
C229        H232   1.082       .  S
C230       C1584   1.442       .  S
C230        C231   1.385       .  A
C231        H233   1.082       .  S
N234        N235   1.321       .  A
N234        C238   1.343       .  A
N235        C236   1.345       .  A
C236        C237   1.379       .  A
C236        H239   1.082       .  S
C237       C1505   1.433       .  S
C237        C238   1.378       .  A
C238        H240   1.082       .  S
N241        N242   1.325       .  A
N241        C245   1.344       .  A
N241       Cu249   2.063       .  S
N242        C243   1.347       .  A
N242       Cu248   2.092       .  S
C243        C244   1.382       .  A
C243        H246   1.082       .  S
C244       C1502   1.436       .  S
C244        C245   1.375       .  A
C245        H247   1.082       .  S
Cu248       N251   2.092       .  S
Cu249       N259   2.062       .  S
Cu250       N252   2.068       .  S
Cu250       N258   2.067       .  S
N251        N252   1.323       .  A
N251        C255   1.351       .  A
N252        C253   1.343       .  A
C253        C254   1.377       .  A
C253        H256   1.082       .  S
C254       C1600   1.442       .  S
C254        C255   1.385       .  A
C255        H257   1.082       .  S
N258        N259   1.321       .  A
N258        C262   1.343       .  A
N259        C260   1.345       .  A
C260        C261   1.379       .  A
C260        H263   1.082       .  S
C261       C1506   1.433       .  S
C261        C262   1.378       .  A
C262        H264   1.082       .  S
N265        N266   1.325       .  A
N265        C269   1.344       .  A
N265       Cu273   2.063       .  S
N266        C267   1.347       .  A
N266       Cu272   2.092       .  S
C267        C268   1.382       .  A
C267        H270   1.082       .  S
C268       C1497   1.436       .  S
C268        C269   1.375       .  A
C269        H271   1.082       .  S
Cu272       N275   2.092       .  S
Cu273       N283   2.063       .  S
Cu274       N276   2.068       .  S
Cu274       N282   2.067       .  S
N275        N276   1.323       .  A
N275        C279   1.351       .  A
N276        C277   1.343       .  A
C277        C278   1.377       .  A
C277        H280   1.082       .  S
C278       C1567   1.442       .  S
C278        C279   1.385       .  A
C279        H281   1.082       .  S
N282        N283   1.321       .  A
N282        C286   1.343       .  A
N283        C284   1.345       .  A
C284        C285   1.379       .  A
C284        H287   1.082       .  S
C285       C1500   1.433       .  S
C285        C286   1.378       .  A
C286        H288   1.082       .  S
N289        N290   1.325       .  A
N289        C293   1.344       .  A
N289       Cu297   2.063       .  S
N290        C291   1.347       .  A
N290       Cu296   2.092       .  S
C291        C292   1.382       .  A
C291        H294   1.082       .  S
C292       C1496   1.436       .  S
C292        C293   1.375       .  A
C293        H295   1.082       .  S
Cu296       N299   2.092       .  S
Cu297       N307   2.063       .  S
Cu298       N300   2.068       .  S
Cu298       N306   2.067       .  S
N299        N300   1.323       .  A
N299        C303   1.351       .  A
N300        C301   1.343       .  A
C301        C302   1.377       .  A
C301        H304   1.082       .  S
C302       C1576   1.442       .  S
C302        C303   1.385       .  A
C303        H305   1.082       .  S
N306        N307   1.321       .  A
N306        C310   1.343       .  A
N307        C308   1.345       .  A
C308        C309   1.379       .  A
C308        H311   1.082       .  S
C309       C1499   1.433       .  S
C309        C310   1.378       .  A
C310        H312   1.082       .  S
N313        N314   1.325       .  A
N313        C317   1.344       .  A
N313       Cu321   2.064       .  S
N314        C315   1.347       .  A
N314       Cu320   2.092       .  S
C315        C316   1.382       .  A
C315        H318   1.082       .  S
C316       C1492   1.436       .  S
C316        C317   1.375       .  A
C317        H319   1.082       .  S
Cu320       N323   2.092       .  S
Cu321       N331   2.063       .  S
Cu322       N324   2.068       .  S
Cu322       N330   2.067       .  S
N323        N324   1.323       .  A
N323        C327   1.351       .  A
N324        C325   1.343       .  A
C325        C326   1.377       .  A
C325        H328   1.082       .  S
C326       C1582   1.442       .  S
C326        C327   1.385       .  A
C327        H329   1.082       .  S
N330        N331   1.321       .  A
N330        C334   1.343       .  A
N331        C332   1.346       .  A
C332        C333   1.379       .  A
C332        H335   1.082       .  S
C333       C1493   1.433       .  S
C333        C334   1.378       .  A
C334        H336   1.082       .  S
N337        N338   1.325       .  A
N337        C341   1.344       .  A
N337       Cu345   2.063       .  S
N338        C339   1.347       .  A
N338       Cu344   2.093       .  S
C339        C340   1.382       .  A
C339        H342   1.082       .  S
C340       C1489   1.436       .  S
C340        C341   1.375       .  A
C341        H343   1.082       .  S
Cu344       N347   2.093       .  S
Cu345       N355   2.062       .  S
Cu346       N348   2.068       .  S
Cu346       N354   2.067       .  S
N347        N348   1.323       .  A
N347        C351   1.351       .  A
N348        C349   1.343       .  A
C349        C350   1.377       .  A
C349        H352   1.082       .  S
C350       C1595   1.443       .  S
C350        C351   1.385       .  A
C351        H353   1.082       .  S
N354        N355   1.321       .  A
N354        C358   1.343       .  A
N355        C356   1.345       .  A
C356        C357   1.379       .  A
C356        H359   1.082       .  S
C357       C1494   1.433       .  S
C357        C358   1.378       .  A
C358        H360   1.082       .  S
N361        N362   1.325       .  A
N361        C365   1.344       .  A
N361       Cu369   2.063       .  S
N362        C363   1.347       .  A
N362       Cu368   2.093       .  S
C363        C364   1.382       .  A
C363        H366   1.082       .  S
C364       C1485   1.436       .  S
C364        C365   1.375       .  A
C365        H367   1.082       .  S
Cu368       N371   2.092       .  S
Cu369       N379   2.063       .  S
Cu370       N372   2.068       .  S
Cu370       N378   2.067       .  S
N371        N372   1.323       .  A
N371        C375   1.351       .  A
N372        C373   1.343       .  A
C373        C374   1.377       .  A
C373        H376   1.082       .  S
C374       C1587   1.442       .  S
C374        C375   1.385       .  A
C375        H377   1.082       .  S
N378        N379   1.321       .  A
N378        C382   1.343       .  A
N379        C380   1.345       .  A
C380        C381   1.379       .  A
C380        H383   1.082       .  S
C381       C1487   1.433       .  S
C381        C382   1.378       .  A
C382        H384   1.082       .  S
N385        N386   1.325       .  A
N385        C389   1.344       .  A
N385       Cu393   2.063       .  S
N386        C387   1.347       .  A
N386       Cu392   2.092       .  S
C387        C388   1.382       .  A
C387        H390   1.082       .  S
C388       C1484   1.436       .  S
C388        C389   1.375       .  A
C389        H391   1.082       .  S
Cu392       N395   2.092       .  S
Cu393       N403   2.063   1_545  S
Cu394       N396   2.068       .  S
Cu394       N402   2.067   1_545  S
N395        N396   1.323       .  A
N395        C399   1.351       .  A
N396        C397   1.343       .  A
C397        C398   1.377       .  A
C397        H400   1.082       .  S
C398       C1605   1.442       .  S
C398        C399   1.385       .  A
C399        H401   1.082       .  S
N402        N403   1.321       .  A
N402        C406   1.343       .  A
N403        C404   1.345       .  A
C404        C405   1.379       .  A
C404        H407   1.082       .  S
C405       C1488   1.433       .  S
C405        C406   1.378       .  A
C406        H408   1.082       .  S
N409        N410   1.325       .  A
N409        C413   1.344       .  A
N409       Cu417   2.063       .  S
N410        C411   1.347       .  A
N410       Cu416   2.093       .  S
C411        C412   1.382       .  A
C411        H414   1.082       .  S
C412       C1479   1.436       .  S
C412        C413   1.375       .  A
C413        H415   1.082       .  S
Cu416       N419   2.093       .  S
Cu417       N427   2.062       .  S
Cu418       N420   2.068       .  S
Cu418       N426   2.067       .  S
N419        N420   1.323       .  A
N419        C423   1.351       .  A
N420        C421   1.343       .  A
C421        C422   1.377       .  A
C421        H424   1.082       .  S
C422       C1579   1.443       .  S
C422        C423   1.385       .  A
C423        H425   1.082       .  S
N426        N427   1.321       .  A
N426        C430   1.343       .  A
N427        C428   1.345       .  A
C428        C429   1.379       .  A
C428        H431   1.082       .  S
C429       C1481   1.433       .  S
C429        C430   1.378       .  A
C430        H432   1.082       .  S
N433        N434   1.325       .  A
N433        C437   1.344       .  A
N433       Cu441   2.064       .  S
N434        C435   1.347       .  A
N434       Cu440   2.093       .  S
C435        C436   1.382       .  A
C435        H438   1.082       .  S
C436       C1477   1.436       .  S
C436        C437   1.375       .  A
C437        H439   1.082       .  S
Cu440       N443   2.092       .  S
Cu441       N451   2.063       .  S
Cu442       N444   2.068       .  S
Cu442       N450   2.067       .  S
N443        N444   1.323       .  A
N443        C447   1.351       .  A
N444        C445   1.343       .  A
C445        C446   1.377       .  A
C445        H448   1.082       .  S
C446       C1598   1.442       .  S
C446        C447   1.385       .  A
C447        H449   1.082       .  S
N450        N451   1.321       .  A
N450        C454   1.343       .  A
N451        C452   1.346       .  A
C452        C453   1.379       .  A
C452        H455   1.082       .  S
C453       C1482   1.433       .  S
C453        C454   1.378       .  A
C454        H456   1.082       .  S
N457        N458   1.325       .  A
N457        C461   1.344       .  A
N457       Cu465   2.063       .  S
N458        C459   1.347       .  A
N458       Cu464   2.093       .  S
C459        C460   1.382       .  A
C459        H462   1.082       .  S
C460       C1474   1.436       .  S
C460        C461   1.375       .  A
C461        H463   1.082       .  S
Cu464       N467   2.092       .  S
Cu465       N475   2.063       .  S
Cu466       N468   2.068       .  S
Cu466       N474   2.067       .  S
N467        N468   1.323       .  A
N467        C471   1.351       .  A
N468        C469   1.343       .  A
C469        C470   1.377       .  A
C469        H472   1.082       .  S
C470       C1590   1.442       .  S
C470        C471   1.385       .  A
C471        H473   1.082       .  S
N474        N475   1.321       .  A
N474        C478   1.343       .  A
N475        C476   1.345       .  A
C476        C477   1.379       .  A
C476        H479   1.082       .  S
C477       C1475   1.433       .  S
C477        C478   1.378       .  A
C478        H480   1.082       .  S
N481        N482   1.325       .  A
N481        C485   1.344       .  A
N481       Cu489   2.063       .  S
N482        C483   1.347       .  A
N482       Cu488   2.092       .  S
C483        C484   1.382       .  A
C483        H486   1.082       .  S
C484       C1471   1.436       .  S
C484        C485   1.375       .  A
C485        H487   1.082       .  S
Cu488       N491   2.092       .  S
Cu489       N499   2.063   1_545  S
Cu490       N492   2.068       .  S
Cu490       N498   2.067   1_545  S
N491        N492   1.323       .  A
N491        C495   1.351       .  A
N492        C493   1.343       .  A
C493        C494   1.377       .  A
C493        H496   1.082       .  S
C494       C1604   1.442       .  S
C494        C495   1.385       .  A
C495        H497   1.082       .  S
N498        N499   1.321       .  A
N498        C502   1.343       .  A
N499        C500   1.345       .  A
C500        C501   1.379       .  A
C500        H503   1.082       .  S
C501       C1476   1.433       .  S
C501        C502   1.378       .  A
C502        H504   1.082       .  S
N505        N506   1.325       .  A
N505        C509   1.344       .  A
N505       Cu513   2.063       .  S
N506        C507   1.347       .  A
N506       Cu512   2.093       .  S
C507        C508   1.382       .  A
C507        H510   1.082       .  S
C508       C1467   1.436       .  S
C508        C509   1.375       .  A
C509        H511   1.082       .  S
Cu512       N515   2.093       .  S
Cu513       N523   2.062       .  S
Cu514       N516   2.068       .  S
Cu514       N522   2.067       .  S
N515        N516   1.323       .  A
N515        C519   1.351       .  A
N516        C517   1.343       .  A
C517        C518   1.377       .  A
C517        H520   1.082       .  S
C518       C1563   1.443       .  S
C518        C519   1.385       .  A
C519        H521   1.082       .  S
N522        N523   1.321       .  A
N522        C526   1.343       .  A
N523        C524   1.345       .  A
C524        C525   1.379       .  A
C524        H527   1.082       .  S
C525       C1469   1.433       .  S
C525        C526   1.378       .  A
C526        H528   1.082       .  S
N529        N530   1.325       .  A
N529        C533   1.344       .  A
N529       Cu537   2.064       .  S
N530        C531   1.347       .  A
N530       Cu536   2.093       .  S
C531        C532   1.382       .  A
C531        H534   1.082       .  S
C532       C1466   1.436       .  S
C532        C533   1.375       .  A
C533        H535   1.082       .  S
Cu536       N539   2.092       .  S
Cu537       N547   2.063       .  S
Cu538       N540   2.068       .  S
Cu538       N546   2.067       .  S
N539        N540   1.323       .  A
N539        C543   1.351       .  A
N540        C541   1.343       .  A
C541        C542   1.377       .  A
C541        H544   1.082       .  S
C542       C1573   1.442       .  S
C542        C543   1.385       .  A
C543        H545   1.082       .  S
N546        N547   1.321       .  A
N546        C550   1.343       .  A
N547        C548   1.346       .  A
C548        C549   1.379       .  A
C548        H551   1.082       .  S
C549       C1470   1.433       .  S
C549        C550   1.378       .  A
C550        H552   1.082       .  S
N553        N554   1.325       .  A
N553        C557   1.344       .  A
N553       Cu561   2.064       .  S
N554        C555   1.347       .  A
N554       Cu560   2.092       .  S
C555        C556   1.382       .  A
C555        H558   1.082       .  S
C556       C1461   1.436       .  S
C556        C557   1.375       .  A
C557        H559   1.082       .  S
Cu560       N563   2.092       .  S
Cu561       N571   2.063       .  S
Cu562       N564   2.068       .  S
Cu562       N570   2.067       .  S
N563        N564   1.323       .  A
N563        C567   1.351       .  A
N564        C565   1.343       .  A
C565        C566   1.377       .  A
C565        H568   1.082       .  S
C566       C1566   1.442       .  S
C566        C567   1.385       .  A
C567        H569   1.082       .  S
N570        N571   1.321       .  A
N570        C574   1.343       .  A
N571        C572   1.346       .  A
C572        C573   1.379       .  A
C572        H575   1.082       .  S
C573       C1464   1.433       .  S
C573        C574   1.378       .  A
C574        H576   1.082       .  S
N577        N578   1.325       .  A
N577        C581   1.344       .  A
N577       Cu585   2.063       .  S
N578        C579   1.347       .  A
N578       Cu584   2.093       .  S
C579        C580   1.382       .  A
C579        H582   1.082       .  S
C580       C1459   1.436       .  S
C580        C581   1.375       .  A
C581        H583   1.082       .  S
Cu584       N587   2.093       .  S
Cu585       N595   2.062       .  S
Cu586       N588   2.068       .  S
Cu586       N594   2.067       .  S
N587        N588   1.323       .  A
N587        C591   1.351       .  A
N588        C589   1.343       .  A
C589        C590   1.377       .  A
C589        H592   1.082       .  S
C590       C1572   1.443       .  S
C590        C591   1.385       .  A
C591        H593   1.082       .  S
N594        N595   1.321       .  A
N594        C598   1.343       .  A
N595        C596   1.345       .  A
C596        C597   1.379       .  A
C596        H599   1.082       .  S
C597       C1463   1.433       .  S
C597        C598   1.378       .  A
C598        H600   1.082       .  S
N601        N602   1.325       .  A
N601        C605   1.344       .  A
N601       Cu609   2.063       .  S
N602        C603   1.347       .  A
N602       Cu608   2.093       .  S
C603        C604   1.382       .  A
C603        H606   1.082       .  S
C604       C1455   1.436       .  S
C604        C605   1.375       .  A
C605        H607   1.082       .  S
Cu608       N611   2.092       .  S
Cu609       N619   2.063       .  S
Cu610       N612   2.068       .  S
Cu610       N618   2.068       .  S
N611        N612   1.323       .  A
N611        C615   1.351       .  A
N612        C613   1.343       .  A
C613        C614   1.377       .  A
C613        H616   1.082       .  S
C614       C1585   1.442       .  S
C614        C615   1.385       .  A
C615        H617   1.082       .  S
N618        N619   1.321       .  A
N618        C622   1.343       .  A
N619        C620   1.345       .  A
C620        C621   1.379       .  A
C620        H623   1.082       .  S
C621       C1457   1.433       .  S
C621        C622   1.378       .  A
C622        H624   1.082       .  S
N625        N626   1.325       .  A
N625        C629   1.344       .  A
N625       Cu633   2.064       .  S
N626        C627   1.347       .  A
N626       Cu632   2.093       .  S
C627        C628   1.382       .  A
C627        H630   1.082       .  S
C628       C1453   1.436       .  S
C628        C629   1.376       .  A
C629        H631   1.082       .  S
Cu632       N635   2.092       .  S
Cu633       N643   2.063   1_545  S
Cu634       N636   2.067       .  S
Cu634       N642   2.067   1_545  S
N635        N636   1.323       .  A
N635        C639   1.351       .  A
N636        C637   1.343       .  A
C637        C638   1.377       .  A
C637        H640   1.082       .  S
C638       C1602   1.442       .  S
C638        C639   1.385       .  A
C639        H641   1.082       .  S
N642        N643   1.321       .  A
N642        C646   1.343       .  A
N643        C644   1.346       .  A
C644        C645   1.379       .  A
C644        H647   1.082       .  S
C645       C1458   1.433       .  S
C645        C646   1.378       .  A
C646        H648   1.082       .  S
N649        N650   1.325       .  A
N649        C653   1.344       .  A
N649       Cu657   2.064       .  S
N650        C651   1.347       .  A
N650       Cu656   2.093       .  S
C651        C652   1.382       .  A
C651        H654   1.082       .  S
C652       C1449   1.436       .  S
C652        C653   1.375       .  A
C653        H655   1.082       .  S
Cu656       N659   2.092       .  S
Cu657       N667   2.063       .  S
Cu658       N660   2.068       .  S
Cu658       N666   2.067       .  S
N659        N660   1.323       .  A
N659        C663   1.351       .  A
N660        C661   1.343       .  A
C661        C662   1.377       .  A
C661        H664   1.082       .  S
C662       C1578   1.442       .  S
C662        C663   1.385       .  A
C663        H665   1.082       .  S
N666        N667   1.321       .  A
N666        C670   1.343       .  A
N667        C668   1.346       .  A
C668        C669   1.379       .  A
C668        H671   1.082       .  S
C669       C1451   1.433       .  S
C669        C670   1.378       .  A
C670        H672   1.082       .  S
N673        N674   1.325       .  A
N673        C677   1.344       .  A
N673       Cu681   2.064       .  S
N674        C675   1.347       .  A
N674       Cu680   2.092       .  S
C675        C676   1.382       .  A
C675        H678   1.082       .  S
C676       C1448   1.436       .  S
C676        C677   1.375       .  A
C677        H679   1.082       .  S
Cu680       N683   2.092       .  S
Cu681       N691   2.063       .  S
Cu682       N684   2.068       .  S
Cu682       N690   2.067       .  S
N683        N684   1.323       .  A
N683        C687   1.351       .  A
N684        C685   1.343       .  A
C685        C686   1.377       .  A
C685        H688   1.082       .  S
C686       C1593   1.442       .  S
C686        C687   1.385       .  A
C687        H689   1.082       .  S
N690        N691   1.321       .  A
N690        C694   1.343       .  A
N691        C692   1.345       .  A
C692        C693   1.379       .  A
C692        H695   1.082       .  S
C693       C1452   1.433       .  S
C693        C694   1.378       .  A
C694        H696   1.082       .  S
N697        N698   1.325       .  A
N697        C701   1.344       .  A
N697       Cu705   2.063       .  S
N698        C699   1.347       .  A
N698       Cu704   2.092       .  S
C699        C700   1.382       .  A
C699        H702   1.082       .  S
C700       C1443   1.436       .  S
C700        C701   1.375       .  A
C701        H703   1.082       .  S
Cu704       N707   2.092       .  S
Cu705       N715   2.063       .  S
Cu706       N708   2.068       .  S
Cu706       N714   2.067       .  S
N707        N708   1.323       .  A
N707        C711   1.351       .  A
N708        C709   1.343       .  A
C709        C710   1.377       .  A
C709        H712   1.082       .  S
C710       C1562   1.442       .  S
C710        C711   1.385       .  A
C711        H713   1.082       .  S
N714        N715   1.321       .  A
N714        C718   1.343       .  A
N715        C716   1.345       .  A
C716        C717   1.379       .  A
C716        H719   1.082       .  S
C717       C1445   1.433       .  S
C717        C718   1.378       .  A
C718        H720   1.082       .  S
N721        N722   1.325       .  A
N721        C725   1.344       .  A
N721       Cu729   2.064       .  S
N722        C723   1.347       .  A
N722       Cu728   2.092       .  S
C723        C724   1.382       .  A
C723        H726   1.082       .  S
C724       C1441   1.436       .  S
C724        C725   1.375       .  A
C725        H727   1.082       .  S
Cu728       N731   2.092       .  S
Cu729       N739   2.063       .  S
Cu730       N732   2.068       .  S
Cu730       N738   2.067       .  S
N731        N732   1.323       .  A
N731        C735   1.351       .  A
N732        C733   1.343       .  A
C733        C734   1.377       .  A
C733        H736   1.082       .  S
C734       C1570   1.442       .  S
C734        C735   1.385       .  A
C735        H737   1.082       .  S
N738        N739   1.321       .  A
N738        C742   1.343       .  A
N739        C740   1.345       .  A
C740        C741   1.379       .  A
C740        H743   1.082       .  S
C741       C1446   1.433       .  S
C741        C742   1.378       .  A
C742        H744   1.082       .  S
N745        N746   1.325       .  A
N745        C749   1.345       .  A
N745       Cu753   2.064       .  S
N746        C747   1.347       .  A
N746       Cu752   2.093       .  S
C747        C748   1.382       .  A
C747        H750   1.082       .  S
C748       C1437   1.437       .  S
C748        C749   1.376       .  A
C749        H751   1.082       .  S
Cu752       N755   2.092       .  S
Cu753       N763   2.063       .  S
Cu754       N756   2.068       .  S
Cu754       N762   2.067       .  S
N755        N756   1.323       .  A
N755        C759   1.351       .  A
N756        C757   1.343       .  A
C757        C758   1.377       .  A
C757        H760   1.082       .  S
C758       C1544   1.442       .  S
C758        C759   1.385       .  A
C759        H761   1.082       .  S
N762        N763   1.321       .  A
N762        C766   1.343       .  A
N763        C764   1.346       .  A
C764        C765   1.379       .  A
C764        H767   1.082       .  S
C765       C1439   1.433       .  S
C765        C766   1.378       .  A
C766        H768   1.082       .  S
N769        N770   1.325       .  A
N769        C773   1.344       .  A
N769       Cu777   2.063       .  S
N770        C771   1.347       .  A
N770       Cu776   2.093       .  S
C771        C772   1.382       .  A
C771        H774   1.082       .  S
C772       C1435   1.436       .  S
C772        C773   1.375       .  A
C773        H775   1.082       .  S
Cu776       N779   2.093       .  S
Cu777       N787   2.062       .  S
Cu778       N780   2.068       .  S
Cu778       N786   2.067       .  S
N779        N780   1.323       .  A
N779        C783   1.351       .  A
N780        C781   1.343       .  A
C781        C782   1.377       .  A
C781        H784   1.082       .  S
C782       C1560   1.443       .  S
C782        C783   1.385       .  A
C783        H785   1.082       .  S
N786        N787   1.321       .  A
N786        C790   1.343       .  A
N787        C788   1.345       .  A
C788        C789   1.379       .  A
C788        H791   1.082       .  S
C789       C1440   1.433       .  S
C789        C790   1.378       .  A
C790        H792   1.082       .  S
N793        N794   1.325       .  A
N793        C797   1.344       .  A
N793       Cu801   2.064       .  S
N794        C795   1.347       .  A
N794       Cu800   2.093       .  S
C795        C796   1.382       .  A
C795        H798   1.082       .  S
C796       C1431   1.436       .  S
C796        C797   1.375       .  A
C797        H799   1.082       .  S
Cu800       N803   2.092       .  S
Cu801       N811   2.063       .  S
Cu802       N804   2.068       .  S
Cu802       N810   2.067       .  S
N803        N804   1.323       .  A
N803        C807   1.351       .  A
N804        C805   1.343       .  A
C805        C806   1.377       .  A
C805        H808   1.082   1_545  S
C806       C1535   1.442   1_545  S
C806        C807   1.385       .  A
C807        H809   1.082       .  S
N810        N811   1.321       .  A
N810        C814   1.343       .  A
N811        C812   1.346       .  A
C812        C813   1.379       .  A
C812        H815   1.082       .  S
C813       C1433   1.433       .  S
C813        C814   1.378       .  A
C814        H816   1.082       .  S
N817        N818   1.325       .  A
N817        C821   1.344       .  A
N817       Cu825   2.064       .  S
N818        C819   1.347       .  A
N818       Cu824   2.092       .  S
C819        C820   1.382       .  A
C819        H822   1.082       .  S
C820       C1429   1.436       .  S
C820        C821   1.376       .  A
C821        H823   1.082       .  S
Cu824       N827   2.092       .  S
Cu825       N835   2.063       .  S
Cu826       N828   2.068       .  S
Cu826       N834   2.067       .  S
N827        N828   1.323       .  A
N827        C831   1.351       .  A
N828        C829   1.343       .  A
C829        C830   1.377   1_545  A
C829        H832   1.082   1_545  S
C830       C1552   1.442       .  S
C830        C831   1.385   1_565  A
C831        H833   1.082       .  S
N834        N835   1.321       .  A
N834        C838   1.343       .  A
N835        C836   1.346       .  A
C836        C837   1.379       .  A
C836        H839   1.082       .  S
C837       C1434   1.433       .  S
C837        C838   1.378       .  A
C838        H840   1.082       .  S
N841        N842   1.325       .  A
N841        C845   1.344       .  A
N841       Cu849   2.064       .  S
N842        C843   1.347       .  A
N842       Cu848   2.093       .  S
C843        C844   1.382       .  A
C843        H846   1.082       .  S
C844       C1425   1.436       .  S
C844        C845   1.375       .  A
C845        H847   1.082       .  S
Cu848       N851   2.092       .  S
Cu849       N859   2.063       .  S
Cu850       N852   2.068       .  S
Cu850       N858   2.067       .  S
N851        N852   1.323       .  A
N851        C855   1.351       .  A
N852        C853   1.343       .  A
C853        C854   1.377   1_545  A
C853        H856   1.082   1_545  S
C854       C1534   1.442       .  S
C854        C855   1.385   1_565  A
C855        H857   1.082       .  S
N858        N859   1.321       .  A
N858        C862   1.343       .  A
N859        C860   1.345       .  A
C860        C861   1.379       .  A
C860        H863   1.082       .  S
C861       C1427   1.433       .  S
C861        C862   1.378       .  A
C862        H864   1.082       .  S
N865        N866   1.325       .  A
N865        C869   1.344       .  A
N865       Cu873   2.064       .  S
N866        C867   1.347       .  A
N866       Cu872   2.093       .  S
C867        C868   1.382       .  A
C867        H870   1.082       .  S
C868       C1423   1.436       .  S
C868        C869   1.375       .  A
C869        H871   1.082       .  S
Cu872       N875   2.093       .  S
Cu873       N883   2.063       .  S
Cu874       N876   2.068       .  S
Cu874       N882   2.067       .  S
N875        N876   1.323       .  A
N875        C879   1.351       .  A
N876        C877   1.343       .  A
C877        C878   1.377   1_545  A
C877        H880   1.082   1_545  S
C878       C1548   1.442       .  S
C878        C879   1.385   1_565  A
C879        H881   1.082       .  S
N882        N883   1.321       .  A
N882        C886   1.343       .  A
N883        C884   1.345       .  A
C884        C885   1.379       .  A
C884        H887   1.082       .  S
C885       C1428   1.433       .  S
C885        C886   1.378       .  A
C886        H888   1.082       .  S
N889        N890   1.325       .  A
N889        C893   1.344       .  A
N889       Cu897   2.063       .  S
N890        C891   1.347       .  A
N890       Cu896   2.093       .  S
C891        C892   1.382       .  A
C891        H894   1.082       .  S
C892       C1419   1.436       .  S
C892        C893   1.375       .  A
C893        H895   1.082       .  S
Cu896       N899   2.092       .  S
Cu897       N907   2.063       .  S
Cu898       N900   2.068       .  S
Cu898       N906   2.067       .  S
N899        N900   1.323       .  A
N899        C903   1.351       .  A
N900        C901   1.343       .  A
C901        C902   1.377       .  A
C901        H904   1.082       .  S
C902       C1531   1.442       .  S
C902        C903   1.385       .  A
C903        H905   1.082       .  S
N906        N907   1.321       .  A
N906        C910   1.343       .  A
N907        C908   1.345       .  A
C908        C909   1.379       .  A
C908        H911   1.082       .  S
C909       C1422   1.433       .  S
C909        C910   1.378       .  A
C910        H912   1.082       .  S
N913        N914   1.325       .  A
N913        C917   1.344       .  A
N913       Cu921   2.064       .  S
N914        C915   1.347       .  A
N914       Cu920   2.093       .  S
C915        C916   1.382       .  A
C915        H918   1.082       .  S
C916       C1417   1.436       .  S
C916        C917   1.375       .  A
C917        H919   1.082       .  S
Cu920       N923   2.092       .  S
Cu921       N931   2.063       .  S
Cu922       N924   2.068       .  S
Cu922       N930   2.067       .  S
N923        N924   1.323       .  A
N923        C927   1.351       .  A
N924        C925   1.343       .  A
C925        C926   1.377       .  A
C925        H928   1.082       .  S
C926       C1550   1.442       .  S
C926        C927   1.385       .  A
C927        H929   1.082       .  S
N930        N931   1.321       .  A
N930        C934   1.343       .  A
N931        C932   1.345       .  A
C932        C933   1.379       .  A
C932        H935   1.082       .  S
C933       C1421   1.433       .  S
C933        C934   1.378       .  A
C934        H936   1.082       .  S
N937        N938   1.325       .  A
N937        C941   1.344       .  A
N937       Cu945   2.064       .  S
N938        C939   1.347       .  A
N938       Cu944   2.093       .  S
C939        C940   1.382       .  A
C939        H942   1.082       .  S
C940       C1414   1.436       .  S
C940        C941   1.375       .  A
C941        H943   1.082       .  S
Cu944       N947   2.092       .  S
Cu945       N955   2.063       .  S
Cu946       N948   2.068       .  S
Cu946       N954   2.067       .  S
N947        N948   1.323       .  A
N947        C951   1.351       .  A
N948        C949   1.343       .  A
C949        C950   1.377       .  A
C949        H952   1.082       .  S
C950       C1542   1.442       .  S
C950        C951   1.385       .  A
C951        H953   1.082       .  S
N954        N955   1.321       .  A
N954        C958   1.343       .  A
N955        C956   1.346       .  A
C956        C957   1.379       .  A
C956        H959   1.082       .  S
C957       C1416   1.433       .  S
C957        C958   1.378       .  A
C958        H960   1.082       .  S
N961        N962   1.325       .  A
N961        C965   1.344       .  A
N961       Cu969   2.063       .  S
N962        C963   1.347       .  A
N962       Cu968   2.092       .  S
C963        C964   1.382       .  A
C963        H966   1.082       .  S
C964       C1411   1.436       .  S
C964        C965   1.375       .  A
C965        H967   1.082       .  S
Cu968       N971   2.092       .  S
Cu969       N979   2.063       .  S
Cu970       N972   2.068       .  S
Cu970       N978   2.068       .  S
N971        N972   1.323       .  A
N971        C975   1.351       .  A
N972        C973   1.343       .  A
C973        C974   1.377       .  A
C973        H976   1.082       .  S
C974       C1556   1.442       .  S
C974        C975   1.385       .  A
C975        H977   1.082       .  S
N978        N979   1.321       .  A
N978        C982   1.343       .  A
N979        C980   1.345       .  A
C980        C981   1.379       .  A
C980        H983   1.082       .  S
C981       C1415   1.433       .  S
C981        C982   1.378       .  A
C982        H984   1.082       .  S
N985        N986   1.325       .  A
N985        C989   1.344       .  A
N985       Cu993   2.064       .  S
N986        C987   1.347       .  A
N986       Cu992   2.093       .  S
C987        C988   1.382       .  A
C987        H990   1.082       .  S
C988       C1408   1.436       .  S
C988        C989   1.375       .  A
C989        H991   1.082       .  S
Cu992       N995   2.092       .  S
Cu993      N1003   2.063       .  S
Cu994       N996   2.068       .  S
Cu994      N1002   2.067       .  S
N995        N996   1.323       .  A
N995        C999   1.351       .  A
N996        C997   1.343       .  A
C997        C998   1.377   1_545  A
C997       H1000   1.082   1_545  S
C998       C1518   1.442       .  S
C998        C999   1.385   1_565  A
C999       H1001   1.082       .  S
N1002      N1003   1.321       .  A
N1002      C1006   1.343       .  A
N1003      C1004   1.346       .  A
C1004      C1005   1.379       .  A
C1004      H1007   1.082       .  S
C1005      C1409   1.433       .  S
C1005      C1006   1.378       .  A
C1006      H1008   1.082       .  S
N1009      N1010   1.325       .  A
N1009      C1013   1.344       .  A
N1009     Cu1017   2.063       .  S
N1010      C1011   1.347       .  A
N1010     Cu1016   2.093       .  S
C1011      C1012   1.382       .  A
C1011      H1014   1.082       .  S
C1012      C1405   1.436       .  S
C1012      C1013   1.375       .  A
C1013      H1015   1.082       .  S
Cu1016     N1019   2.092       .  S
Cu1017     N1027   2.063       .  S
Cu1018     N1020   2.068       .  S
Cu1018     N1026   2.067       .  S
N1019      N1020   1.323       .  A
N1019      C1023   1.351       .  A
N1020      C1021   1.343       .  A
C1021      C1022   1.377   1_545  A
C1021      H1024   1.082   1_545  S
C1022      C1524   1.443       .  S
C1022      C1023   1.385   1_565  A
C1023      H1025   1.082       .  S
N1026      N1027   1.321       .  A
N1026      C1030   1.343       .  A
N1027      C1028   1.345       .  A
C1028      C1029   1.379       .  A
C1028      H1031   1.082       .  S
C1029      C1410   1.433       .  S
C1029      C1030   1.378       .  A
C1030      H1032   1.082       .  S
N1033      N1034   1.325       .  A
N1033      C1037   1.344       .  A
N1033     Cu1041   2.063       .  S
N1034      C1035   1.347       .  A
N1034     Cu1040   2.093       .  S
C1035      C1036   1.382       .  A
C1035      H1038   1.082       .  S
C1036      C1401   1.436       .  S
C1036      C1037   1.375       .  A
C1037      H1039   1.082       .  S
Cu1040     N1043   2.092       .  S
Cu1041     N1051   2.063       .  S
Cu1042     N1044   2.068       .  S
Cu1042     N1050   2.067       .  S
N1043      N1044   1.323       .  A
N1043      C1047   1.351       .  A
N1044      C1045   1.343       .  A
C1045      C1046   1.377       .  A
C1045      H1048   1.082       .  S
C1046      C1515   1.443       .  S
C1046      C1047   1.385       .  A
C1047      H1049   1.082       .  S
N1050      N1051   1.321       .  A
N1050      C1054   1.343       .  A
N1051      C1052   1.345       .  A
C1052      C1053   1.379       .  A
C1052      H1055   1.082       .  S
C1053      C1404   1.433       .  S
C1053      C1054   1.378       .  A
C1054      H1056   1.082       .  S
N1057      N1058   1.325       .  A
N1057      C1061   1.344       .  A
N1057     Cu1065   2.064       .  S
N1058      C1059   1.347       .  A
N1058     Cu1064   2.093       .  S
C1059      C1060   1.382       .  A
C1059      H1062   1.082       .  S
C1060      C1400   1.436       .  S
C1060      C1061   1.375       .  A
C1061      H1063   1.082       .  S
Cu1064     N1067   2.092       .  S
Cu1065     N1075   2.063       .  S
Cu1066     N1068   2.068       .  S
Cu1066     N1074   2.067       .  S
N1067      N1068   1.323       .  A
N1067      C1071   1.351       .  A
N1068      C1069   1.343       .  A
C1069      C1070   1.377       .  A
C1069      H1072   1.082       .  S
C1070      C1526   1.442       .  S
C1070      C1071   1.385       .  A
C1071      H1073   1.082       .  S
N1074      N1075   1.321       .  A
N1074      C1078   1.343       .  A
N1075      C1076   1.345       .  A
C1076      C1077   1.379       .  A
C1076      H1079   1.082       .  S
C1077      C1403   1.433       .  S
C1077      C1078   1.378       .  A
C1078      H1080   1.082       .  S
N1081      N1082   1.325       .  A
N1081      C1085   1.344       .  A
N1081     Cu1089   2.063       .  S
N1082      C1083   1.347       .  A
N1082     Cu1088   2.093       .  S
C1083      C1084   1.382       .  A
C1083      H1086   1.082       .  S
C1084      C1395   1.436       .  S
C1084      C1085   1.375       .  A
C1085      H1087   1.082       .  S
Cu1088     N1091   2.093       .  S
Cu1089     N1099   2.062       .  S
Cu1090     N1092   2.068       .  S
Cu1090     N1098   2.067       .  S
N1091      N1092   1.323       .  A
N1091      C1095   1.351       .  A
N1092      C1093   1.343       .  A
C1093      C1094   1.377       .  A
C1093      H1096   1.082       .  S
C1094      C1538   1.443       .  S
C1094      C1095   1.385       .  A
C1095      H1097   1.082       .  S
N1098      N1099   1.321       .  A
N1098      C1102   1.343       .  A
N1099      C1100   1.345       .  A
C1100      C1101   1.379       .  A
C1100      H1103   1.082       .  S
C1101      C1397   1.433       .  S
C1101      C1102   1.378       .  A
C1102      H1104   1.082       .  S
N1105      N1106   1.325       .  A
N1105      C1109   1.344       .  A
N1105     Cu1113   2.064       .  S
N1106      C1107   1.347       .  A
N1106     Cu1112   2.093       .  S
C1107      C1108   1.382       .  A
C1107      H1110   1.082       .  S
C1108      C1394   1.436       .  S
C1108      C1109   1.375       .  A
C1109      H1111   1.082       .  S
Cu1112     N1115   2.092       .  S
Cu1113     N1123   2.063       .  S
Cu1114     N1116   2.068       .  S
Cu1114     N1122   2.067       .  S
N1115      N1116   1.323       .  A
N1115      C1119   1.351       .  A
N1116      C1117   1.343       .  A
C1117      C1118   1.377       .  A
C1117      H1120   1.082       .  S
C1118      C1553   1.442       .  S
C1118      C1119   1.385       .  A
C1119      H1121   1.082       .  S
N1122      N1123   1.321       .  A
N1122      C1126   1.343       .  A
N1123      C1124   1.346       .  A
C1124      C1125   1.379       .  A
C1124      H1127   1.082       .  S
C1125      C1398   1.433       .  S
C1125      C1126   1.378       .  A
C1126      H1128   1.082       .  S
N1129      N1130   1.325       .  A
N1129      C1133   1.344       .  A
N1129     Cu1137   2.063       .  S
N1130      C1131   1.347       .  A
N1130     Cu1136   2.092       .  S
C1131      C1132   1.382       .  A
C1131      H1134   1.082       .  S
C1132      C1389   1.436       .  S
C1132      C1133   1.375       .  A
C1133      H1135   1.082       .  S
Cu1136     N1139   2.092       .  S
Cu1137     N1147   2.063       .  S
Cu1138     N1140   2.068       .  S
Cu1138     N1146   2.067       .  S
N1139      N1140   1.323       .  A
N1139      C1143   1.351       .  A
N1140      C1141   1.343       .  A
C1141      C1142   1.377       .  A
C1141      H1144   1.082       .  S
C1142      C1514   1.442       .  S
C1142      C1143   1.385       .  A
C1143      H1145   1.082       .  S
N1146      N1147   1.321       .  A
N1146      C1150   1.343       .  A
N1147      C1148   1.346       .  A
C1148      C1149   1.379       .  A
C1148      H1151   1.082       .  S
C1149      C1391   1.433       .  S
C1149      C1150   1.378       .  A
C1150      H1152   1.082       .  S
N1153      N1154   1.325       .  A
N1153      C1157   1.344       .  A
N1153     Cu1161   2.063       .  S
N1154      C1155   1.347       .  A
N1154     Cu1160   2.092       .  S
C1155      C1156   1.382       .  A
C1155      H1158   1.082       .  S
C1156      C1388   1.436       .  S
C1156      C1157   1.375       .  A
C1157      H1159   1.082       .  S
Cu1160     N1163   2.092       .  S
Cu1161     N1171   2.063       .  S
Cu1162     N1164   2.068       .  S
Cu1162     N1170   2.067       .  S
N1163      N1164   1.323       .  A
N1163      C1167   1.351       .  A
N1164      C1165   1.343       .  A
C1165      C1166   1.377       .  A
C1165      H1168   1.082       .  S
C1166      C1522   1.442       .  S
C1166      C1167   1.385       .  A
C1167      H1169   1.082       .  S
N1170      N1171   1.321       .  A
N1170      C1174   1.343       .  A
N1171      C1172   1.345       .  A
C1172      C1173   1.379       .  A
C1172      H1175   1.082       .  S
C1173      C1392   1.433       .  S
C1173      C1174   1.378       .  A
C1174      H1176   1.082       .  S
N1177      N1178   1.325       .  A
N1177      C1181   1.344       .  A
N1177     Cu1185   2.063       .  S
N1178      C1179   1.347       .  A
N1178     Cu1184   2.092       .  S
C1179      C1180   1.382       .  A
C1179      H1182   1.082       .  S
C1180      C1383   1.436       .  S
C1180      C1181   1.375       .  A
C1181      H1183   1.082       .  S
Cu1184     N1187   2.092       .  S
Cu1185     N1195   2.063       .  S
Cu1186     N1188   2.068       .  S
Cu1186     N1194   2.067       .  S
N1187      N1188   1.323       .  A
N1187      C1191   1.351       .  A
N1188      C1189   1.343       .  A
C1189      C1190   1.377       .  A
C1189      H1192   1.082       .  S
C1190      C1530   1.442       .  S
C1190      C1191   1.385       .  A
C1191      H1193   1.082       .  S
N1194      N1195   1.321       .  A
N1194      C1198   1.343       .  A
N1195      C1196   1.345       .  A
C1196      C1197   1.379       .  A
C1196      H1199   1.082       .  S
C1197      C1385   1.433       .  S
C1197      C1198   1.378       .  A
C1198      H1200   1.082       .  S
N1201      N1202   1.325       .  A
N1201      C1205   1.344       .  A
N1201     Cu1209   2.063       .  S
N1202      C1203   1.347       .  A
N1202     Cu1208   2.092       .  S
C1203      C1204   1.382       .  A
C1203      H1206   1.082       .  S
C1204      C1381   1.436       .  S
C1204      C1205   1.375       .  A
C1205      H1207   1.082       .  S
Cu1208     N1211   2.092       .  S
Cu1209     N1219   2.063       .  S
Cu1210     N1212   2.068       .  S
Cu1210     N1218   2.067       .  S
N1211      N1212   1.323       .  A
N1211      C1215   1.351       .  A
N1212      C1213   1.343       .  A
C1213      C1214   1.377       .  A
C1213      H1216   1.082       .  S
C1214      C1546   1.442       .  S
C1214      C1215   1.385       .  A
C1215      H1217   1.082       .  S
N1218      N1219   1.321       .  A
N1218      C1222   1.343       .  A
N1219      C1220   1.345       .  A
C1220      C1221   1.379       .  A
C1220      H1223   1.082       .  S
C1221      C1386   1.433       .  S
C1221      C1222   1.378       .  A
C1222      H1224   1.082       .  S
C1225      C1501   1.449       .  S
C1225      C1226   1.408       .  A
C1225      C1230   1.408       .  A
C1226      C1379   1.449       .  S
C1226      C1227   1.408       .  A
C1227      C1462   1.449       .  S
C1227      C1228   1.408       .  A
C1228      C1384   1.449       .  S
C1228      C1229   1.408       .  A
C1229      C1473   1.449       .  S
C1229      C1230   1.408       .  A
C1230      C1399   1.449       .  S
C1231      C1387   1.449       .  S
C1231      C1232   1.408       .  A
C1231      C1236   1.408       .  A
C1232      C1510   1.449       .  S
C1232      C1233   1.408       .  A
C1233      C1382   1.449       .  S
C1233      C1234   1.408       .  A
C1234      C1498   1.449       .  S
C1234      C1235   1.408       .  A
C1235      C1393   1.449       .  S
C1235      C1236   1.408       .  A
C1236      C1504   1.449       .  S
C1237      C1495   1.449       .  S
C1237      C1238   1.408       .  A
C1237      C1242   1.408       .  A
C1238      C1418   1.449       .  S
C1238      C1239   1.408       .  A
C1239      C1486   1.449       .  S
C1239      C1240   1.408       .  A
C1240      C1390   1.449       .  S
C1240      C1241   1.408       .  A
C1241      C1491   1.449       .  S
C1241      C1242   1.408       .  A
C1242      C1412   1.449       .  S
C1243      C1507   1.449       .  S
C1243      C1244   1.408       .  A
C1243      C1248   1.408       .  A
C1244      C1406   1.449       .  S
C1244      C1245   1.408       .  A
C1245      C1480   1.449       .  S
C1245      C1246   1.408       .  A
C1246      C1396   1.449       .  S
C1246      C1247   1.408       .  A
C1247      C1468   1.449       .  S
C1247      C1248   1.408       .  A
C1248      C1424   1.449       .  S
N1249      N1250   1.325       .  A
N1249      C1253   1.344       .  A
N1249     Cu1257   2.064       .  S
N1250      C1251   1.347       .  A
N1250     Cu1256   2.093       .  S
C1251      C1252   1.382       .  A
C1251      H1254   1.082       .  S
C1252      C1376   1.436       .  S
C1252      C1253   1.375       .  A
C1253      H1255   1.082       .  S
Cu1256     N1259   2.092       .  S
Cu1257     N1267   2.063       .  S
Cu1258     N1260   2.068       .  S
Cu1258     N1266   2.067       .  S
N1259      N1260   1.323       .  A
N1259      C1263   1.351       .  A
N1260      C1261   1.343       .  A
C1261      C1262   1.377       .  A
C1261      H1264   1.082       .  S
C1262      C1539   1.442       .  S
C1262      C1263   1.385       .  A
C1263      H1265   1.082       .  S
N1266      N1267   1.321       .  A
N1266      C1270   1.343       .  A
N1267      C1268   1.346       .  A
C1268      C1269   1.379       .  A
C1268      H1271   1.082       .  S
C1269      C1377   1.433       .  S
C1269      C1270   1.378       .  A
C1270      H1272   1.082       .  S
N1273      N1274   1.325       .  A
N1273      C1277   1.344       .  A
N1273     Cu1281   2.064       .  S
N1274      C1275   1.347       .  A
N1274     Cu1280   2.092       .  S
C1275      C1276   1.382       .  A
C1275      H1278   1.082       .  S
C1276      C1380   1.436       .  S
C1276      C1277   1.375       .  A
C1277      H1279   1.082       .  S
Cu1280     N1283   2.092       .  S
Cu1281     N1291   2.063       .  S
Cu1282     N1284   2.068       .  S
Cu1282     N1290   2.068       .  S
N1283      N1284   1.323       .  A
N1283      C1287   1.351       .  A
N1284      C1285   1.343       .  A
C1285      C1286   1.377       .  A
C1285      H1288   1.082       .  S
C1286      C1558   1.442       .  S
C1286      C1287   1.385       .  A
C1287      H1289   1.082       .  S
N1290      N1291   1.321       .  A
N1290      C1294   1.343       .  A
N1291      C1292   1.345       .  A
C1292      C1293   1.379       .  A
C1292      H1295   1.082       .  S
C1293      C1378   1.433       .  S
C1293      C1294   1.378       .  A
C1294      H1296   1.082       .  S
C1297      C1472   1.449       .  S
C1297      C1298   1.408       .  A
C1297      C1302   1.408       .  A
C1298      C1373   1.449       .  S
C1298      C1299   1.408       .  A
C1299      C1478   1.449       .  S
C1299      C1300   1.408       .  A
C1300      C1375   1.449       .  S
C1300      C1301   1.408       .  A
C1301      C1444   1.449       .  S
C1301      C1302   1.408       .  A
C1302      C1426   1.449       .  S
C1303      C1456   1.449       .  S
C1303      C1304   1.408       .  A
C1303      C1308   1.408       .  A
C1304      C1402   1.449       .  S
C1304      C1305   1.408       .  A
C1305      C1490   1.449       .  S
C1305      C1306   1.408       .  A
C1306      C1436   1.449       .  S
C1306      C1307   1.408       .  A
C1307      C1460   1.449       .  S
C1307      C1308   1.408       .  A
C1308      C1420   1.449       .  S
C1309      C1483   1.449       .  S
C1309      C1310   1.408       .  A
C1309      C1314   1.408       .  A
C1310      C1430   1.449       .  S
C1310      C1311   1.408       .  A
C1311      C1465   1.449       .  S
C1311      C1312   1.408       .  A
C1312      C1413   1.449       .  S
C1312      C1313   1.408       .  A
C1313      C1450   1.449       .  S
C1313      C1314   1.408       .  A
C1314      C1407   1.449       .  S
N1315      N1316   1.325       .  A
N1315      C1319   1.344       .  A
N1315     Cu1323   2.064       .  S
N1316      C1317   1.347       .  A
N1316     Cu1322   2.093       .  S
C1317      C1318   1.382       .  A
C1317      H1320   1.082       .  S
C1318      C1370   1.436       .  S
C1318      C1319   1.375       .  A
C1319      H1321   1.082       .  S
Cu1322     N1325   2.092       .  S
Cu1323     N1333   2.063       .  S
Cu1324     N1326   2.068       .  S
Cu1324     N1332   2.067       .  S
N1325      N1326   1.323       .  A
N1325      C1329   1.351       .  A
N1326      C1327   1.343       .  A
C1327      C1328   1.377       .  A
C1327      H1330   1.082   1_545  S
C1328      C1520   1.442   1_545  S
C1328      C1329   1.385       .  A
C1329      H1331   1.082       .  S
N1332      N1333   1.321       .  A
N1332      C1336   1.343       .  A
N1333      C1334   1.346       .  A
C1334      C1335   1.379       .  A
C1334      H1337   1.082       .  S
C1335      C1372   1.433       .  S
C1335      C1336   1.378       .  A
C1336      H1338   1.082       .  S
N1339      N1340   1.325       .  A
N1339      C1343   1.344       .  A
N1339     Cu1347   2.064       .  S
N1340      C1341   1.347       .  A
N1340     Cu1346   2.092       .  S
C1341      C1342   1.382       .  A
C1341      H1344   1.082       .  S
C1342      C1374   1.436       .  S
C1342      C1343   1.376       .  A
C1343      H1345   1.082       .  S
Cu1346     N1349   2.092       .  S
Cu1347     N1357   2.063       .  S
Cu1348     N1350   2.068       .  S
Cu1348     N1356   2.067       .  S
N1349      N1350   1.323       .  A
N1349      C1353   1.351       .  A
N1350      C1351   1.343       .  A
C1351      C1352   1.377   1_545  A
C1351      H1354   1.082   1_545  S
C1352      C1528   1.442       .  S
C1352      C1353   1.385   1_565  A
C1353      H1355   1.082       .  S
N1356      N1357   1.321       .  A
N1356      C1360   1.343       .  A
N1357      C1358   1.346       .  A
C1358      C1359   1.379       .  A
C1358      H1361   1.082       .  S
C1359      C1371   1.433       .  S
C1359      C1360   1.378       .  A
C1360      H1362   1.082       .  S
C1363      C1432   1.449       .  S
C1363      C1364   1.408       .  A
C1363      C1368   1.408       .  A
C1364      C1454   1.449       .  S
C1364      C1365   1.408       .  A
C1365      C1369   1.449       .  S
C1365      C1366   1.408       .  A
C1366      C1447   1.449       .  S
C1366      C1367   1.408       .  A
C1367      C1438   1.449       .  S
C1367      C1368   1.408       .  A
C1368      C1442   1.449       .  S
C1369      C1370   1.205       .  T
C1371      C1372   1.204       .  T
C1373      C1374   1.205       .  T
C1375      C1376   1.205       .  T
C1377      C1378   1.204       .  T
C1379      C1380   1.205       .  T
C1381      C1382   1.205       .  T
C1383      C1384   1.205       .  T
C1385      C1386   1.204       .  T
C1387      C1388   1.205       .  T
C1389      C1390   1.205       .  T
C1391      C1392   1.204       .  T
C1393      C1394   1.205       .  T
C1395      C1396   1.205       .  T
C1397      C1398   1.204       .  T
C1399      C1400   1.205       .  T
C1401      C1402   1.206       .  T
C1403      C1404   1.204       .  T
C1405      C1406   1.206       .  T
C1407      C1408   1.205       .  T
C1409      C1410   1.204       .  T
C1411      C1412   1.205       .  T
C1413      C1414   1.205       .  T
C1415      C1416   1.204       .  T
C1417      C1418   1.205       .  T
C1419      C1420   1.205       .  T
C1421      C1422   1.204       .  T
C1423      C1424   1.206       .  T
C1425      C1426   1.205       .  T
C1427      C1428   1.204       .  T
C1429      C1430   1.206       .  T
C1431      C1432   1.205       .  T
C1433      C1434   1.204       .  T
C1435      C1436   1.205       .  T
C1437      C1438   1.206       .  T
C1439      C1440   1.204       .  T
C1441      C1442   1.205       .  T
C1443      C1444   1.205       .  T
C1445      C1446   1.204   1_556  T
C1447      C1448   1.205       .  T
C1449      C1450   1.205       .  T
C1451      C1452   1.204   1_655  T
C1453      C1454   1.206       .  T
C1455      C1456   1.206       .  T
C1457      C1458   1.204       .  T
C1459      C1460   1.205       .  T
C1461      C1462   1.205       .  T
C1463      C1464   1.204   1_554  T
C1465      C1466   1.205       .  T
C1467      C1468   1.205       .  T
C1469      C1470   1.204   1_556  T
C1471      C1472   1.205       .  T
C1473      C1474   1.205       .  T
C1475      C1476   1.204       .  T
C1477      C1478   1.205       .  T
C1479      C1480   1.205       .  T
C1481      C1482   1.204   1_655  T
C1483      C1484   1.205       .  T
C1485      C1486   1.205       .  T
C1487      C1488   1.204       .  T
C1489      C1490   1.205       .  T
C1491      C1492   1.205       .  T
C1493      C1494   1.204   1_655  T
C1495      C1496   1.205       .  T
C1497      C1498   1.205       .  T
C1499      C1500   1.203   1_554  T
C1501      C1502   1.205       .  T
C1503      C1504   1.205       .  T
C1505      C1506   1.203   1_655  T
C1507      C1508   1.205       .  T
C1509      C1510   1.205       .  T
C1511      C1512   1.204       .  T
C1513      C1514   1.209       .  T
C1515      C1516   1.209       .  T
C1517      C1518   1.209       .  T
C1519      C1520   1.209       .  T
C1521      C1522   1.209       .  T
C1523      C1524   1.209       .  T
C1525      C1526   1.209       .  T
C1527      C1528   1.209       .  T
C1529      C1530   1.209       .  T
C1531      C1532   1.209       .  T
C1533      C1534   1.209       .  T
C1535      C1536   1.209       .  T
C1537      C1538   1.209       .  T
C1539      C1540   1.209       .  T
C1541      C1542   1.209       .  T
C1543      C1544   1.209       .  T
C1545      C1546   1.209       .  T
C1547      C1548   1.209       .  T
C1549      C1550   1.209       .  T
C1551      C1552   1.209       .  T
C1553      C1554   1.209       .  T
C1555      C1556   1.209       .  T
C1557      C1558   1.209       .  T
C1559      C1560   1.209       .  T
C1561      C1562   1.209       .  T
C1563      C1564   1.209       .  T
C1565      C1566   1.209       .  T
C1567      C1568   1.209       .  T
C1569      C1570   1.209       .  T
C1571      C1572   1.209       .  T
C1573      C1574   1.209       .  T
C1575      C1576   1.209       .  T
C1577      C1578   1.209       .  T
C1579      C1580   1.209       .  T
C1581      C1582   1.209       .  T
C1583      C1584   1.209       .  T
C1585      C1586   1.209       .  T
C1587      C1588   1.209       .  T
C1589      C1590   1.209       .  T
C1591      C1592   1.209       .  T
C1593      C1594   1.209       .  T
C1595      C1596   1.209       .  T
C1597      C1598   1.209       .  T
C1599      C1600   1.209       .  T
C1601      C1602   1.209       .  T
C1603      C1604   1.209       .  T
C1605      C1606   1.209       .  T
C1607      C1608   1.209       .  T
