geometry optimzed in LAMMPS
_audit_creation_date              2020-11-30 
_audit_creation_method            'lammps2cif' 
_symmetry_space_group_name_H-M    'P1' 
_symmetry_Int_Tables_number       1 
_symmetry_cell_setting            triclinic 
loop_ 
_symmetry_equiv_pos_as_xyz 
  x,y,z 
_cell_length_a                    44.86716688 
_cell_length_b                    44.82631096126482 
_cell_length_c                    44.81832710417626 
_cell_angle_alpha                 89.89707699727086 
_cell_angle_beta                  90.23004086741754 
_cell_angle_gamma                 89.75722055390021 
loop_ 
_atom_site_label 
_atom_site_type_symbol 
_atom_site_fract_x 
_atom_site_fract_y 
_atom_site_fract_z 
_atom_site_charge 
C1          C  0.00331328  0.27415401  0.22067747     0.79800
N2          N  0.98971659  0.24876256  0.23062922    -0.78500
C3          C  0.00528654  0.22956056  0.24877947     0.82200
N4          N  0.03331902  0.23663208  0.25765911    -0.78500
C5          C  0.04652074  0.26212659  0.24866108     0.82300
N6          N  0.03128218  0.28052665  0.23010499    -0.80200
O7          O  0.02901810  0.41740283  0.39872396    -0.86900
O8          O  0.02354287  0.41654094  0.56657491    -0.87100
O9          O  0.07314326  0.38146815  0.48057528    -0.88800
O10         O  0.97413132  0.37716460  0.48012446    -0.87500
O11         O  0.93789039  0.41339109  0.48005321    -0.87100
O12         O  0.10672419  0.42000676  0.48293353    -0.88500
O13         O  0.02808071  0.37922339  0.53195964    -0.87000
O14         O  0.03141123  0.38061199  0.43433808    -0.86600
Zr15       Zr  0.02268310  0.40350497  0.48290662     2.84300
O16         O  0.99085755  0.43263899  0.51278075    -1.08500
O17         O  0.05104156  0.43654679  0.45417991    -1.09300
C18         C  0.03388008  0.39030651  0.40728082     1.06200
C19         C  0.02835282  0.38925743  0.55905917     1.06100
C20         C  0.09999451  0.39213061  0.48093669     1.09100
C21         C  0.94643203  0.38584419  0.47926782     1.06900
H22         H  0.06421557  0.42387268  0.52512104     0.32400
O23         O  0.05104121  0.43574933  0.51281848    -1.29500
H24         H  0.98060824  0.42048043  0.43911580     0.32100
O25         O  0.99211068  0.43326870  0.45195783    -1.31200
O26         O  0.01676231  0.51246839  0.56850877    -0.86900
O27         O  0.01942702  0.51476046  0.39845671    -0.88400
O28         O  0.10416549  0.46677535  0.53259489    -0.87000
O29         O  0.93434441  0.46079690  0.52962392    -0.87100
O30         O  0.93642372  0.46205382  0.43340959    -0.86800
O31         O  0.10605388  0.46320235  0.43604044    -0.86600
O32         O  0.06575276  0.55171706  0.48155712    -0.86900
O33         O  0.96961982  0.54748012  0.48063910    -0.86400
O34         O  0.10374086  0.51731369  0.48183253    -0.87500
O35         O  0.93419278  0.51068090  0.48135907    -0.86600
O36         O  0.06773450  0.46332797  0.56839037    -0.87000
O37         O  0.07074485  0.46218114  0.39886557    -0.86800
O38         O  0.97256741  0.46182193  0.39738149    -0.86400
O39         O  0.97008062  0.46094062  0.56633674    -0.86800
O40         O  0.01664707  0.54819799  0.53187547    -0.87100
O41         O  0.01816861  0.54932037  0.43614260    -0.88400
Zr42       Zr  0.01940818  0.46444801  0.54291490     2.83100
Zr43       Zr  0.02122690  0.46527473  0.42239731     2.83500
Zr44       Zr  0.08058012  0.46746301  0.48377164     2.84100
Zr45       Zr  0.96056414  0.46252793  0.48198619     2.83400
Zr46       Zr  0.01876977  0.52433957  0.48346501     2.84200
O47         O  0.98986609  0.49391529  0.45255404    -1.09000
O48         O  0.04974776  0.49612151  0.51455028    -1.08500
C49         C  0.01557819  0.53984448  0.55942257     1.06100
C50         C  0.01876312  0.54187985  0.40845163     1.08800
C51         C  0.09519130  0.46464194  0.55982363     1.06300
C52         C  0.94260612  0.46009201  0.55728630     1.06700
C53         C  0.94501371  0.46139265  0.40596348     1.06300
C54         C  0.09807627  0.46110233  0.40839158     1.05800
C55         C  0.09366369  0.54444903  0.48047731     1.06200
C56         C  0.94232210  0.53836097  0.48042045     1.05700
H57         H  0.06240899  0.50906088  0.44024667     0.32400
O58         O  0.05025391  0.49636842  0.45266605    -1.30100
H59         H  0.97549441  0.50569809  0.52495263     0.32400
O60         O  0.98865011  0.49374144  0.51275524    -1.31500
C61         C  0.98220217  0.73032131  0.74975764     0.79800
N62         N  0.98588095  0.70719210  0.73072409    -0.78500
C63         C  0.99160239  0.71159096  0.70159762     0.82200
N64         N  0.99381867  0.73980737  0.69117283    -0.78500
C65         C  0.99062423  0.76369411  0.70958769     0.82300
N66         N  0.98462581  0.75903670  0.73931443    -0.80200
C67         C  0.99955833  0.27828417  0.77333810     0.79800
N68         N  0.02406627  0.28717876  0.75809961    -0.78500
C69         C  0.03577782  0.27023611  0.73602773     0.82200
N70         N  0.02261036  0.24407201  0.72933764    -0.78500
C71         C  0.99778324  0.23482858  0.74352355     0.82300
N72         N  0.98553827  0.25233660  0.76535287    -0.80200
C73         C  0.97243225  0.74169889  0.23438482     0.79800
N74         N  0.96612926  0.76841951  0.24777086    -0.78500
C75         C  0.97168788  0.77170676  0.27772174     0.82200
N76         N  0.98314990  0.74831409  0.29354075    -0.78500
C77         C  0.98917020  0.72193362  0.28012661     0.82300
N78         N  0.98364067  0.71894033  0.25075247    -0.80200
O79         O  0.97961404  0.06633981  0.41408000    -0.86900
O80         O  0.98686580  0.06578354  0.58315393    -0.87100
O81         O  0.93440669  0.10250347  0.50700360    -0.88800
O82         O  0.03343036  0.10162170  0.50558644    -0.87500
O83         O  0.06734507  0.06358148  0.50074457    -0.87100
O84         O  0.89836959  0.06624666  0.50854826    -0.88500
O85         O  0.98275178  0.10346436  0.54857695    -0.87000
O86         O  0.97977773  0.10405175  0.44879358    -0.86600
Zr87       Zr  0.98310652  0.07960662  0.49874455     2.84300
O88         O  0.01389124  0.04769626  0.52660694    -1.08500
O89         O  0.95131541  0.04912088  0.47007142    -1.09300
C90         C  0.97945691  0.09407002  0.42151678     1.06200
C91         C  0.98477187  0.09360541  0.57579948     1.06100
C92         C  0.90760409  0.09319936  0.51191386     1.09100
C93         C  0.06038927  0.09084361  0.50613949     1.06900
H94         H  0.94332452  0.05956280  0.54317859     0.32400
O95         O  0.95462590  0.04783459  0.52915538    -1.29500
H96         H  0.02367731  0.06151024  0.45437568     0.32100
O97         O  0.01161086  0.04904813  0.46705532    -1.31200
O98         O  0.98614027  0.96959780  0.58331431    -0.86900
O99         O  0.97708487  0.97020023  0.41309216    -0.88400
O100        O  0.90027462  0.01889481  0.55174345    -0.87000
O101        O  0.06990756  0.01896443  0.54242669    -0.87100
O102        O  0.06414434  0.02048467  0.44562065    -0.86800
O103        O  0.89598927  0.02386846  0.45124693    -0.86600
O104        O  0.93488059  0.93475500  0.50470940    -0.86900
O105        O  0.02940063  0.93293066  0.49305573    -0.86400
O106        O  0.89743612  0.96984119  0.50451956    -0.87500
O107        O  0.06583079  0.96858076  0.49174551    -0.86600
O108        O  0.93906448  0.01716013  0.58532645    -0.87000
O109        O  0.93205591  0.02335516  0.41519688    -0.86800
O110        O  0.02639620  0.01865132  0.41111226    -0.86400
O111        O  0.03551181  0.01917037  0.58019204    -0.86800
O112        O  0.98599873  0.93384266  0.54669206    -0.87100
O113        O  0.97633258  0.93382703  0.44912422    -0.88400
Zr114      Zr  0.98576514  0.01761877  0.55805524     2.83100
Zr115      Zr  0.97995493  0.01848288  0.43875918     2.83500
Zr116      Zr  0.92173296  0.01858069  0.50063618     2.84100
Zr117      Zr  0.04214484  0.01719912  0.49532737     2.93600
Zr118      Zr  0.98212834  0.95828468  0.49780346     2.84200
O119        O  0.01129647  0.98733485  0.46620744    -1.09000
O120        O  0.95367253  0.98839200  0.52922143    -1.08500
C121        C  0.98671774  0.94228238  0.57431627     1.06100
C122        C  0.97523540  0.94263597  0.42157276     1.08800
C123        C  0.91103639  0.01811282  0.57874208     1.06300
C124        C  0.06247684  0.02014198  0.57027655     1.06700
C125        C  0.05416706  0.02018646  0.41849439     1.06300
C126        C  0.90475525  0.02537817  0.42356902     1.05800
C127        C  0.90742709  0.94278708  0.50662380     1.06200
C128        C  0.05676184  0.94129385  0.49109819     1.05700
H129        H  0.93688076  0.97627699  0.45702658     0.32400
O130        O  0.95011179  0.98828291  0.46900405    -1.30100
H131        H  0.02751584  0.97442307  0.53874215     0.32400
O132        O  0.01435243  0.98696985  0.52706556    -1.31500
C133        C  0.26015813  0.24530910  0.48720197     0.79800
N134        N  0.24152226  0.23285756  0.50718126    -0.78500
C135        C  0.24433560  0.20412042  0.51566212     0.82200
N136        N  0.26692686  0.18755644  0.50415750    -0.78500
C137        C  0.28670242  0.19974161  0.48469642     0.82300
N138        N  0.28281144  0.22863615  0.47538659    -0.80200
C139        C  0.74326501  0.20437995  0.50010799     0.79800
N140        N  0.75822424  0.22399352  0.48206244    -0.78500
C141        C  0.77796972  0.24360544  0.49468360     0.82200
N142        N  0.78325187  0.24244634  0.52439659    -0.78500
C143        C  0.76945762  0.22249365  0.54223863     0.82300
N144        N  0.74947376  0.20368340  0.52976925    -0.80200
C145        C  0.74648346  0.73356677  0.47627924     0.79800
N146        N  0.76145477  0.75760910  0.48606812    -0.78500
C147        C  0.79015854  0.75597586  0.49440998     0.82200
N148        N  0.80453030  0.72941850  0.49291932    -0.78500
C149        C  0.79016598  0.70447450  0.48327965     0.82300
N150        N  0.76075219  0.70646283  0.47458509    -0.80200
C151        C  0.21997355  0.72772053  0.46313924     0.79800
N152        N  0.20007101  0.74965226  0.46976583    -0.78500
C153        C  0.20879083  0.77832488  0.47244512     0.82200
N154        N  0.23762651  0.78514551  0.46789458    -0.78500
C155        C  0.25814107  0.76398781  0.46134254     0.82300
N156        N  0.24948548  0.73474942  0.45916608    -0.80200
C157        C  0.72596749  0.00424487  0.21640698     0.79800
N158        N  0.71772147  0.97683976  0.22613406    -0.78500
C159        C  0.72980804  0.96473394  0.25107651     0.82200
N160        N  0.75048805  0.98043090  0.26625260    -0.78500
C161        C  0.75917059  0.00782761  0.25724252     0.82300
N162        N  0.74629434  0.02043847  0.23248473    -0.80200
O163        O  0.47409533  0.05174545  0.47589244    -0.86900
O164        O  0.46566814  0.88158473  0.48199262    -0.87100
O165        O  0.43455091  0.96809738  0.43300362    -0.88800
O166        O  0.43561147  0.96686846  0.53008089    -0.87500
O167        O  0.47201724  0.96789477  0.56621845    -0.87100
O168        O  0.46848131  0.96517106  0.39504893    -0.88500
O169        O  0.43177925  0.91987196  0.47849849    -0.87000
O170        O  0.43644262  0.01733912  0.47761091    -0.86600
Zr171      Zr  0.45856317  0.96746390  0.48130201     2.84300
O172        O  0.48692990  0.93673473  0.51259407    -1.08500
O173        O  0.48899778  0.99565020  0.45010318    -1.09300
C174        C  0.44623897  0.04437394  0.47522097     1.06200
C175        C  0.43888345  0.89181492  0.47908804     1.06100
C176        C  0.44158713  0.96667969  0.40518137     1.09100
C177        C  0.44456857  0.96746992  0.55747740     1.06900
H178        H  0.47305570  0.92335216  0.43905672     0.32400
O179        O  0.48609040  0.93534414  0.45125910    -1.29500
H180        H  0.47835563  0.01041548  0.52279542     0.32100
O181        O  0.49003073  0.99697653  0.51066787    -1.31200
O182        O  0.56095531  0.87654663  0.48198936    -0.86900
O183        O  0.57010143  0.04650686  0.47672576    -0.88400
O184        O  0.51579095  0.91374923  0.39758141    -0.87000
O185        O  0.51888190  0.91759302  0.56666055    -0.87100
O186        O  0.52428127  0.01604021  0.56346369    -0.86800
O187        O  0.51944519  0.01241149  0.39504387    -0.86600
O188        O  0.60099208  0.95154190  0.43124139    -0.86900
O189        O  0.60454130  0.95705544  0.52870699    -0.86400
O190        O  0.56383849  0.95474894  0.39605795    -0.87500
O191        O  0.56790241  0.96056637  0.56406181    -0.86600
O192        O  0.51288889  0.87900727  0.43523756    -0.87000
O193        O  0.52264313  0.04830200  0.43124440    -0.86800
O194        O  0.52381572  0.05104395  0.52613281    -0.86400
O195        O  0.51348348  0.88109602  0.53124617    -0.86800
O196        O  0.59954954  0.90992030  0.47844380    -0.87100
O197        O  0.60547978  0.00933654  0.47750983    -0.88400
Zr198      Zr  0.51467346  0.90475092  0.48254539     2.83100
Zr199      Zr  0.52125368  0.02411465  0.47925369     2.83500
Zr200      Zr  0.51686472  0.96354417  0.42022586     2.84100
Zr201      Zr  0.51963278  0.96604814  0.54085188     2.83400
Zr202      Zr  0.57908038  0.96097007  0.48007218     2.84200
O203        O  0.55109163  0.99370740  0.50988058    -1.09000
O204        O  0.54551906  0.93290695  0.45161503    -1.08500
C205        C  0.58879848  0.88313692  0.47964042     1.06100
C206        C  0.59730270  0.03717798  0.47628932     1.08800
C207        C  0.51429164  0.88667965  0.40758042     1.06300
C208        C  0.51622827  0.89000155  0.55845282     1.06700
C209        C  0.52504301  0.04339427  0.55387856     1.06300
C210        C  0.52169176  0.03987501  0.40381988     1.05800
C211        C  0.59091400  0.94958977  0.40424483     1.06200
C212        C  0.59524128  0.95702325  0.55606133     1.05700
H213        H  0.56267981  0.00332977  0.43609284     0.32400
O214        O  0.54985357  0.99210932  0.44914081    -1.30100
H215        H  0.55919174  0.92013890  0.52340972     0.32400
O216        O  0.54744250  0.93345018  0.51107972    -1.31500
C217        C  0.26696653  0.02404766  0.75145454     0.79800
N218        N  0.23890728  0.02950517  0.74093892    -0.78500
C219        C  0.23283135  0.02432749  0.71156124     0.82200
N220        N  0.25450352  0.01382622  0.69333869    -0.78500
C221        C  0.28223878  0.00830705  0.70383617     0.82300
N222        N  0.28837105  0.01376401  0.73280551    -0.80200
C223        C  0.72228332  0.00285022  0.77102360     0.79800
N224        N  0.74872888  0.01676344  0.76465094    -0.78500
C225        C  0.76530671  0.00690520  0.74092792     0.82200
N226        N  0.75475384  0.98473023  0.72350422    -0.78500
C227        C  0.72831789  0.97172157  0.72895762     0.82300
N228        N  0.71232891  0.98086487  0.75279556    -0.80200
C229        C  0.24740651  0.00631905  0.22515642     0.79800
N230        N  0.26851323  0.99250204  0.24181410    -0.78500
C231        C  0.26454721  0.98739133  0.27116343     0.82200
N232        N  0.23883328  0.99623621  0.28408697    -0.78500
C233        C  0.21705427  0.00995970  0.26796194     0.82300
N234        N  0.22142640  0.01559668  0.23822423    -0.80200
O235        O  0.56489228  0.01934133  0.04526586    -0.86900
O236        O  0.39553047  0.01264600  0.04475605    -0.87100
O237        O  0.47461896  0.06546378  0.08007022    -0.88800
O238        O  0.47926356  0.96807229  0.08369630    -0.87500
O239        O  0.48092832  0.93279035  0.04679477    -0.87100
O240        O  0.47150395  0.10158796  0.04377392    -0.88500
O241        O  0.43069192  0.01645717  0.08193881    -0.87000
O242        O  0.52988084  0.01916949  0.08249818    -0.86600
Zr243      Zr  0.48044749  0.01664933  0.05811068     2.84300
O244        O  0.45185908  0.98494691  0.02824973    -1.08500
O245        O  0.50879762  0.04835172  0.02726912    -1.09300
C246        C  0.55717250  0.01923593  0.07293636     1.06200
C247        C  0.40338950  0.01463221  0.07236911     1.06100
C248        C  0.47028504  0.09248404  0.07106243     1.09100
C249        C  0.47909342  0.94071718  0.07438765     1.06900
H250        H  0.43594108  0.05658297  0.03853207     0.32400
O251        O  0.44958897  0.04504775  0.02656678    -1.29500
H252        H  0.52512013  0.97602971  0.04085828     0.32100
O253        O  0.51221771  0.98791888  0.02830339    -1.31200
O254        O  0.39536545  0.01428946  0.94975404    -0.86900
O255        O  0.56554173  0.02012605  0.94929252    -0.88400
O256        O  0.42697038  0.09902614  0.99852784    -0.87000
O257        O  0.43601463  0.92997177  0.99758494    -0.87100
O258        O  0.53379450  0.93501403  0.99985343    -0.86800
O259        O  0.52538988  0.10458511  0.99726423    -0.86600
O260        O  0.47559683  0.06280007  0.91185117    -0.86900
O261        O  0.48184282  0.96618255  0.91330551    -0.86400
O262        O  0.47200481  0.10013997  0.94662903    -0.87500
O263        O  0.48445568  0.93127759  0.95080108    -0.86600
O264        O  0.39376974  0.06017460  0.99712812    -0.87000
O265        O  0.56206897  0.06887222  0.99835872    -0.86800
O266        O  0.56851452  0.97231201  0.99657817    -0.86400
O267        O  0.39800553  0.96436801  0.99776708    -0.86800
O268        O  0.43115685  0.01768106  0.91343735    -0.87100
O269        O  0.53002113  0.01810149  0.91245098    -0.88400
Zr270      Zr  0.42102285  0.01335975  0.99716945     2.83100
Zr271      Zr  0.54021913  0.01922292  0.99724352     2.83500
Zr272      Zr  0.47753355  0.07714864  0.99606613     2.84100
Zr273      Zr  0.48351169  0.95657433  0.99834405     2.83400
Zr274      Zr  0.48080998  0.01539803  0.93680220     2.84200
O275        O  0.51219448  0.98708267  0.96750455    -1.09000
O276        O  0.44935643  0.04456667  0.96659545    -1.08500
C277        C  0.40375047  0.01709126  0.92247124     1.06100
C278        C  0.55748573  0.01954136  0.92159406     1.08800
C279        C  0.40023041  0.08812930  0.99847424     1.06300
C280        C  0.40809655  0.93739242  0.99736610     1.06700
C281        C  0.56098461  0.94454638  0.99853756     1.06300
C282        C  0.55319027  0.09633835  0.99809454     1.05800
C283        C  0.47143046  0.09018787  0.91953217     1.06200
C284        C  0.48322604  0.93902292  0.92309080     1.05700
H285        H  0.52090258  0.06082366  0.95375331     0.32400
O286        O  0.50918150  0.04796939  0.96628564    -1.30100
H287        H  0.43997820  0.97137368  0.95483155     0.32400
O288        O  0.45198495  0.98431059  0.96709346    -1.31500
C289        C  0.50528019  0.20720223  0.25822575     0.79800
N290        N  0.52193448  0.23119702  0.24960390    -0.78500
C291        C  0.50921362  0.25240390  0.23157689     0.82200
N292        N  0.48099447  0.24866606  0.22151663    -0.78500
C293        C  0.46490812  0.22440722  0.22886624     0.82300
N294        N  0.47723574  0.20399686  0.24744355    -0.80200
C295        C  0.51839165  0.71344748  0.20425183     0.79800
N296        N  0.52465465  0.71507766  0.23413140    -0.78500
C297        C  0.51678547  0.74018695  0.24952897     0.82200
N298        N  0.50322894  0.76317153  0.23516899    -0.78500
C299        C  0.49709135  0.76176010  0.20572230     0.82300
N300        N  0.50487201  0.73691962  0.19046476    -0.80200
C301        C  0.50333428  0.71763929  0.76908882     0.79800
N302        N  0.50018733  0.74108824  0.78785921    -0.78500
C303        C  0.50370709  0.76942063  0.77859422     0.82200
N304        N  0.51041017  0.77447838  0.74977257    -0.78500
C305        C  0.51372845  0.75165122  0.73013405     0.82300
N306        N  0.51037990  0.72275407  0.73972833    -0.80200
C307        C  0.51568982  0.20324055  0.71077881     0.79800
N308        N  0.48999487  0.19630780  0.72512528    -0.78500
C309        C  0.48002500  0.21294047  0.74824559     0.82200
N310        N  0.49639074  0.23638204  0.75728861    -0.78500
C311        C  0.52240627  0.24350493  0.74413006     0.82300
N312        N  0.53260462  0.22671012  0.72072367    -0.80200
O313        O  0.97625881  0.43297688  0.04733946    -0.86900
O314        O  0.98585091  0.60187082  0.04861931    -0.87100
O315        O  0.03086245  0.51744408  0.08468742    -0.88800
O316        O  0.93381867  0.52893215  0.08284290    -0.87500
O317        O  0.89766691  0.53272967  0.04666819    -0.87100
O318        O  0.06590167  0.51456940  0.04763044    -0.88500
O319        O  0.98067983  0.56602828  0.08493278    -0.87000
O320        O  0.97831607  0.46810396  0.08441914    -0.86600
Zr321      Zr  0.98186057  0.51745421  0.06012956     2.84300
O322        O  0.95486987  0.54926198  0.02872694    -1.08500
O323        O  0.00992801  0.48534859  0.02995798    -1.09300
C324        C  0.97681681  0.44074413  0.07505713     1.06200
C325        C  0.98231705  0.59340785  0.07593227     1.06100
C326        C  0.05808595  0.51669009  0.07517804     1.09100
C327        C  0.90697969  0.53484084  0.07388971     1.06900
H328        H  0.02765548  0.55761196  0.04267977     0.32400
O329        O  0.01454700  0.54569923  0.03044450    -1.29500
H330        H  0.93539998  0.47883196  0.04209087     0.32100
O331        O  0.94885619  0.49017510  0.02971568    -1.31200
O332        O  0.98801643  0.60335804  0.95179731    -0.86900
O333        O  0.97506631  0.43329463  0.95129713    -0.88400
O334        O  0.06995869  0.55969895  0.99575780    -0.87000
O335        O  0.90167135  0.57476458  0.00099319    -0.87100
O336        O  0.89319192  0.47540907  0.99771156    -0.86800
O337        O  0.06226258  0.46254969  0.99991720    -0.86600
O338        O  0.03048671  0.51730546  0.91517993    -0.86900
O339        O  0.93494882  0.52617285  0.91469952    -0.86400
O340        O  0.06649635  0.51510718  0.95155385    -0.87500
O341        O  0.89798415  0.53066910  0.94962145    -0.86600
O342        O  0.03704522  0.59890270  0.99836298    -0.87000
O343        O  0.02401484  0.42878198  0.99853152    -0.86800
O344        O  0.92767943  0.43743240  0.99756400    -0.86400
O345        O  0.94138072  0.60699515  0.00015273    -0.86800
O346        O  0.98408257  0.56740877  0.91552117    -0.87100
O347        O  0.97683742  0.46910055  0.91477010    -0.88400
Zr348      Zr  0.98702962  0.57788765  0.99986925     2.83100
Zr349      Zr  0.97756883  0.45821688  0.99935958     2.83500
Zr350      Zr  0.04169738  0.51334691  0.99956772     2.84100
Zr351      Zr  0.92121369  0.52306706  0.99879700     2.83400
Zr352      Zr  0.98207380  0.51809946  0.93934940     2.84200
O353        O  0.94931865  0.49044796  0.96895779    -1.09000
O354        O  0.01428118  0.54578743  0.96941802    -1.08500
C355        C  0.98594670  0.59485096  0.92435982     1.06100
C356        C  0.97491423  0.44159554  0.92369283     1.08800
C357        C  0.06354363  0.58785676  0.99581937     1.06300
C358        C  0.91326986  0.60127182  0.00102485     1.06700
C359        C  0.90060610  0.44732160  0.99692589     1.06300
C360        C  0.05205927  0.43553571  0.99928923     1.05800
C361        C  0.05790511  0.51682244  0.92407873     1.06200
C362        C  0.90782491  0.53140206  0.92249382     1.05700
H363        H  0.02155530  0.47224373  0.95658992     0.32400
O364        O  0.01004126  0.48543981  0.96908394    -1.30100
H365        H  0.94347150  0.56454807  0.95753750     0.32400
O366        O  0.95455029  0.55052988  0.96965046    -1.31500
C367        C  0.78266466  0.48724165  0.25565342     0.79800
N368        N  0.78870411  0.51521730  0.24591193    -0.78500
C369        C  0.77105784  0.52899084  0.22548010     0.82200
N370        N  0.74715223  0.51419813  0.21470745    -0.78500
C371        C  0.74079143  0.48612225  0.22385686     0.82300
N372        N  0.75894076  0.47212668  0.24406036    -0.80200
C373        C  0.27773145  0.47308789  0.20734247     0.79800
N374        N  0.27229815  0.46212860  0.23530710    -0.78500
C375        C  0.24715482  0.47108193  0.24997864     0.82200
N376        N  0.22778554  0.49001435  0.23647277    -0.78500
C377        C  0.23273812  0.50049288  0.20870666     0.82300
N378        N  0.25765921  0.49175280  0.19425839    -0.80200
C379        C  0.26864557  0.47498186  0.76971659     0.79800
N380        N  0.26238948  0.46764829  0.74079343    -0.78500
C381        C  0.23475035  0.47403183  0.72951228     0.82200
N382        N  0.21403268  0.48743547  0.74688390    -0.78500
C383        C  0.22029217  0.49493620  0.77538476     0.82300
N384        N  0.24750919  0.48838330  0.78663589    -0.80200
C385        C  0.78744949  0.47273064  0.71614299     0.79800
N386        N  0.79736690  0.49771605  0.73005722    -0.78500
C387        C  0.78242801  0.50952819  0.75345756     0.82200
N388        N  0.75770567  0.49561764  0.76326714    -0.78500
C389        C  0.74760372  0.47039135  0.75026044     0.82300
N390        N  0.76269418  0.45842292  0.72664969    -0.80200
C391        C  0.21222411  0.27705926  0.98482437     0.79800
N392        N  0.23558041  0.28927945  0.96987089    -0.78500
C393        C  0.26082364  0.27346561  0.96465563     0.82200
N394        N  0.26276433  0.24529937  0.97490420    -0.78500
C395        C  0.24026971  0.23250104  0.99011782     0.82300
N396        N  0.21470421  0.24843931  0.99562742    -0.80200
O397        O  0.52156093  0.41750801  0.06830812    -0.86900
O398        O  0.52134903  0.41732038  0.89888865    -0.87100
O399        O  0.47021130  0.38135279  0.97906880    -0.88800
O400        O  0.56901328  0.38102437  0.99147691    -0.87500
O401        O  0.60452904  0.41781544  0.99137928    -0.87100
O402        O  0.43575146  0.41928403  0.98207690    -0.88500
O403        O  0.52535553  0.38022794  0.93404307    -0.87000
O404        O  0.52118579  0.37982795  0.03361190    -0.86600
Zr405      Zr  0.52014043  0.40422739  0.98379445     2.84300
O406        O  0.55015695  0.43477078  0.95351167    -1.08500
O407        O  0.49023659  0.43505582  0.01417444    -1.09300
C408        C  0.52192197  0.38964561  0.06089684     1.06200
C409        C  0.52445209  0.38970696  0.90658352     1.06100
C410        C  0.44319141  0.39185987  0.97809853     1.09100
C411        C  0.59573142  0.39084914  0.99611277     1.06900
H412        H  0.47795460  0.42349715  0.94145331     0.32400
O413        O  0.49019807  0.43562490  0.95430464    -1.29500
H414        H  0.56146317  0.42451143  0.02659023     0.32100
O415        O  0.54945598  0.43621554  0.01305413    -1.31200
O416        O  0.51933241  0.51375024  0.89794537    -0.86900
O417        O  0.52336510  0.51460305  0.06855308    -0.88400
O418        O  0.43524478  0.46434705  0.93628255    -0.87000
O419        O  0.60468742  0.46017395  0.93432153    -0.87100
O420        O  0.60565714  0.46590903  0.03171291    -0.86800
O421        O  0.43682679  0.46405452  0.03355107    -0.86600
O422        O  0.47200589  0.55094891  0.98284739    -0.86900
O423        O  0.56707021  0.54839307  0.98228615    -0.86400
O424        O  0.43560729  0.51520444  0.98325804    -0.87500
O425        O  0.60517530  0.51433355  0.98177338    -0.86600
O426        O  0.47064608  0.46435996  0.89945039    -0.87000
O427        O  0.47288878  0.46503511  0.06982533    -0.86800
O428        O  0.56888405  0.46535749  0.06719075    -0.86400
O429        O  0.56751632  0.46238868  0.89917423    -0.86800
O430        O  0.51733364  0.54947246  0.93453714    -0.87100
O431        O  0.52296624  0.55027582  0.03185900    -0.88400
Zr432      Zr  0.51957515  0.46540092  0.92364650     2.83100
Zr433      Zr  0.52024804  0.46601988  0.04372009     2.83500
Zr434      Zr  0.46038990  0.46633148  0.98451757     2.84100
Zr435      Zr  0.58048675  0.46558170  0.98306330     2.83400
Zr436      Zr  0.51946986  0.52522892  0.98341229     2.84200
O437        O  0.55037117  0.49568905  0.01337296    -1.09000
O438        O  0.48932713  0.49580274  0.95325697    -1.08500
C439        C  0.51767725  0.54113493  0.90691147     1.06100
C440        C  0.52441623  0.54203371  0.05954848     1.08800
C441        C  0.44335245  0.46392749  0.90863749     1.06300
C442        C  0.59510339  0.45989790  0.90702265     1.06700
C443        C  0.59640974  0.46554655  0.05902467     1.06300
C444        C  0.44546140  0.46385285  0.06114125     1.05800
C445        C  0.44454637  0.54262910  0.98256457     1.06200
C446        C  0.59479368  0.54131133  0.98151289     1.05700
H447        H  0.47734659  0.50927896  0.02723827     0.32400
O448        O  0.48955957  0.49669998  0.01474736    -1.30100
H449        H  0.56216249  0.50807529  0.94006528     0.32400
O450        O  0.55003810  0.49580967  0.95288427    -1.31500
C451        C  0.71471941  0.78024717  0.99888881     0.79800
N452        N  0.74483438  0.77952164  0.00438469    -0.78500
C453        C  0.75984011  0.75297220  0.00169875     0.82200
N454        N  0.74480705  0.72800672  0.99423641    -0.78500
C455        C  0.71525165  0.72850542  0.98915708     0.82300
N456        N  0.70032961  0.75464391  0.99161982    -0.80200
C457        C  0.27780709  0.75725408  0.98711212     0.79800
N458        N  0.29874447  0.73544576  0.98940559    -0.78500
C459        C  0.29124108  0.70640401  0.98978318     0.82200
N460        N  0.26226758  0.69888338  0.98747948    -0.78500
C461        C  0.24062643  0.72000097  0.98488598     0.82300
N462        N  0.24827053  0.74965241  0.98467251    -0.80200
C463        C  0.75024101  0.28619745  0.03166958     0.79800
N464        N  0.73486146  0.26482770  0.01612527    -0.78500
C465        C  0.71399626  0.24790793  0.03063075     0.82200
N466        N  0.70809028  0.25338271  0.05974207    -0.78500
C467        C  0.72259263  0.27494546  0.07513626     0.82300
N468        N  0.74371926  0.29098253  0.06077628    -0.80200
C469        C  0.61654323  0.37134049  0.01289824    -0.01700
C470        C  0.60743131  0.34296767  0.02226544    -0.09800
C471        C  0.62249147  0.32811341  0.04519315    -0.18600
C472        C  0.64734062  0.34120604  0.05941971     0.03800
C473        C  0.65768772  0.36908762  0.04867178     0.18000
C474        C  0.64237994  0.38373136  0.02560488    -0.20000
C475        C  0.68348936  0.38196651  0.06073651    -0.21300
C476        C  0.70061218  0.36653292  0.08161226    -0.19800
C477        C  0.69201985  0.33806037  0.09084145     0.19400
C478        C  0.66400274  0.32624212  0.08192479     0.01500
C479        C  0.65584821  0.29815598  0.09374962    -0.14600
C480        C  0.67807693  0.27954423  0.10556455    -0.12300
C481        C  0.70781991  0.28831672  0.10172646     0.01000
C482        C  0.71284565  0.31905953  0.10472207    -0.24500
H483        H  0.58768348  0.33275083  0.01287605     0.09000
H484        H  0.61432970  0.30633507  0.05125798     0.12600
H485        H  0.65000291  0.40549954  0.01844296     0.11300
H486        H  0.69143996  0.40329557  0.05270028     0.12500
H487        H  0.72169849  0.37588659  0.08875370     0.11500
H488        H  0.63362833  0.28924799  0.09155753     0.08600
H489        H  0.67277696  0.25629198  0.10933327     0.11900
H490        H  0.73550950  0.32685170  0.10777425     0.13800
C491        C  0.31453747  0.68323292  0.98889149    -0.01700
C492        C  0.34138268  0.68868576  0.97407626    -0.09800
C493        C  0.36285423  0.66626761  0.97132898    -0.18600
C494        C  0.35821700  0.63763300  0.98376841     0.03800
C495        C  0.33077560  0.63229710  0.99861685     0.18000
C496        C  0.30935904  0.65502431  0.00109053    -0.20000
C497        C  0.32468693  0.60421082  0.01069266    -0.21300
C498        C  0.34526516  0.58113273  0.00835777    -0.19800
C499        C  0.37272582  0.58575469  0.99448730     0.19400
C500        C  0.37974917  0.61412800  0.98214055     0.01500
C501        C  0.40825762  0.61784780  0.96935934    -0.14600
C502        C  0.42896674  0.59454416  0.96935840    -0.12300
C503        C  0.42186594  0.56662606  0.98151590     0.01000
C504        C  0.39350950  0.56227297  0.99359737    -0.24500
H505        H  0.34550282  0.71020393  0.96386814     0.09000
H506        H  0.38263955  0.67196476  0.95906713     0.12600
H507        H  0.28850770  0.65072668  0.01245280     0.11300
H508        H  0.30377409  0.60001184  0.02193624     0.12500
H509        H  0.33983424  0.55960721  0.01789790     0.11500
H510        H  0.41549999  0.63863612  0.95977329     0.08600
H511        H  0.45073287  0.59844072  0.95975312     0.11900
H512        H  0.38795986  0.54084487  0.00332596     0.13800
C513        C  0.61507464  0.56703983  0.98002203    -0.01700
C514        C  0.64594780  0.56437370  0.98350134    -0.09800
C515        C  0.66382236  0.58991427  0.98361447    -0.18600
C516        C  0.65103045  0.61880286  0.98056208     0.03800
C517        C  0.61976354  0.62097332  0.97652109     0.18000
C518        C  0.60245809  0.59544534  0.97584415    -0.20000
C519        C  0.60556977  0.64864824  0.97358193    -0.21300
C520        C  0.62190690  0.67467166  0.97453524    -0.19800
C521        C  0.65275727  0.67353248  0.97846257     0.19400
C522        C  0.66784542  0.64565650  0.98160504     0.01500
C523        C  0.69897847  0.64600215  0.98603895    -0.14600
C524        C  0.71434627  0.67287888  0.98753647    -0.12300
C525        C  0.69924578  0.70022805  0.98470762     0.01000
C526        C  0.66850237  0.70031074  0.97979877    -0.24500
H527        H  0.65622695  0.54266872  0.98654229     0.09000
H528        H  0.68742295  0.58634217  0.98645601     0.12600
H529        H  0.57863668  0.59805786  0.97248624     0.11300
H530        H  0.58160437  0.65019304  0.97069324     0.12500
H531        H  0.61030835  0.69583359  0.97235556     0.11500
H532        H  0.71203781  0.62596055  0.98882674     0.08600
H533        H  0.73815248  0.67213622  0.99158295     0.11900
H534        H  0.65659271  0.72131483  0.97764859     0.13800
C535        C  0.41817461  0.37239393  0.96937082    -0.01700
C536        C  0.39301941  0.38579992  0.95616375    -0.09800
C537        C  0.36853695  0.36915354  0.94762830    -0.18600
C538        C  0.36782224  0.33823631  0.95286389     0.03800
C539        C  0.39404123  0.32419936  0.96433931     0.18000
C540        C  0.41900901  0.34136001  0.97249644    -0.20000
C541        C  0.39473402  0.29327523  0.96839741    -0.21300
C542        C  0.36926555  0.27636498  0.96348065    -0.19800
C543        C  0.34234167  0.29019675  0.95539620     0.19400
C544        C  0.34142580  0.32116800  0.94895858     0.01500
C545        C  0.31351950  0.33420420  0.94160175    -0.14600
C546        C  0.28723745  0.31802876  0.94447353    -0.12300
C547        C  0.28806442  0.28819847  0.95356317     0.01000
C548        C  0.31584898  0.27382837  0.95656808    -0.24500
H549        H  0.39206238  0.40961071  0.95246732     0.09000
H550        H  0.35038440  0.38131897  0.93747068     0.12600
H551        H  0.43860900  0.33071657  0.98200176     0.11300
H552        H  0.41477378  0.28224305  0.97639778     0.12500
H553        H  0.37016098  0.25260727  0.96794957     0.11500
H554        H  0.31090685  0.35736841  0.93571301     0.08600
H555        H  0.26614217  0.32945190  0.94125178     0.11900
H556        H  0.31688634  0.25050677  0.96295804     0.13800
C557        C  0.72410303  0.45449009  0.76658687    -0.01700
C558        C  0.69421924  0.45863897  0.75868390    -0.09800
C559        C  0.67170856  0.45529658  0.78001361    -0.18600
C560        C  0.67873306  0.44888868  0.81027405     0.03800
C561        C  0.70893137  0.44248719  0.81748173     0.18000
C562        C  0.73106289  0.44476100  0.79555271    -0.20000
C563        C  0.71724982  0.43603579  0.84696409    -0.21300
C564        C  0.69633519  0.43678590  0.86977888    -0.19800
C565        C  0.66664198  0.44442427  0.86375713     0.19400
C566        C  0.65734665  0.45026280  0.83386067     0.01500
C567        C  0.62738670  0.45872818  0.82907553    -0.14600
C568        C  0.60772511  0.46185360  0.85284923    -0.12300
C569        C  0.61688019  0.45637436  0.88235109     0.01000
C570        C  0.64639127  0.44721324  0.88757612    -0.24500
H571        H  0.68843799  0.46678495  0.73662788     0.09000
H572        H  0.64925687  0.45953592  0.77247626     0.12600
H573        H  0.75430690  0.44216039  0.80186489     0.11300
H574        H  0.74029347  0.43118506  0.85255848     0.12500
H575        H  0.70364667  0.43227386  0.89242873     0.11500
H576        H  0.61853471  0.46373285  0.80725671     0.08600
H577        H  0.58512914  0.46896879  0.84794103     0.11900
H578        H  0.65375264  0.44261532  0.91020255     0.13800
C579        C  0.29681116  0.46684307  0.78469404    -0.01700
C580        C  0.32435697  0.47699208  0.77443484    -0.09800
C581        C  0.34965699  0.47539337  0.79293110    -0.18600
C582        C  0.34781727  0.46386029  0.82239526     0.03800
C583        C  0.31984636  0.45265249  0.83196084     0.18000
C584        C  0.29504222  0.45381901  0.81301116    -0.20000
C585        C  0.31629075  0.44148573  0.86087793    -0.21300
C586        C  0.33991539  0.44150384  0.88089057    -0.19800
C587        C  0.36775400  0.45244106  0.87237787     0.19400
C588        C  0.37230328  0.46359306  0.84299731     0.01500
C589        C  0.40103551  0.47426185  0.83580538    -0.14600
C590        C  0.42416852  0.47371811  0.85685353    -0.12300
C591        C  0.41934068  0.46309860  0.88585262     0.01000
C592        C  0.39100854  0.45253151  0.89334462    -0.24500
H593        H  0.32597437  0.48766769  0.75280419     0.09000
H594        H  0.37003227  0.48429114  0.78397678     0.12600
H595        H  0.27361141  0.44609011  0.82101282     0.11300
H596        H  0.29491178  0.43310120  0.86824071     0.12500
H597        H  0.33634152  0.43300742  0.90325234     0.11500
H598        H  0.40630673  0.48318671  0.81413123     0.08600
H599        H  0.44578708  0.48229694  0.85056366     0.11900
H600        H  0.38689725  0.44447886  0.91570208     0.13800
C601        C  0.30342811  0.46343266  0.18919088    -0.01700
C602        C  0.33256259  0.46398623  0.20034549    -0.09800
C603        C  0.35692550  0.46140561  0.18092673    -0.18600
C604        C  0.35263331  0.45836846  0.14968492     0.03800
C605        C  0.32286205  0.45605121  0.13899414     0.18000
C606        C  0.29884346  0.45825437  0.15870354    -0.20000
C607        C  0.31701058  0.45307679  0.10847535    -0.21300
C608        C  0.34005724  0.45368225  0.08799845    -0.19800
C609        C  0.36955198  0.45692948  0.09755017     0.19400
C610        C  0.37648362  0.45864442  0.12850906     0.01500
C611        C  0.40686140  0.46125396  0.13667323    -0.14600
C612        C  0.42918420  0.46283485  0.11495527    -0.12300
C613        C  0.42202444  0.46193953  0.08442330     0.01000
C614        C  0.39208531  0.45875503  0.07607724    -0.24500
H615        H  0.33652334  0.46814399  0.22382287     0.09000
H616        H  0.37878063  0.46301801  0.19083868     0.12600
H617        H  0.27624747  0.45756067  0.14999863     0.11300
H618        H  0.29433461  0.45112220  0.10029259     0.12500
H619        H  0.33471069  0.45204598  0.06444792     0.11500
H620        H  0.41403005  0.46223172  0.15963178     0.08600
H621        H  0.45214228  0.46493883  0.12218312     0.11900
H622        H  0.38611389  0.45771166  0.05263642     0.13800
C623        C  0.71710138  0.47067981  0.20739306    -0.01700
C624        C  0.72479741  0.45203092  0.18357615    -0.09800
C625        C  0.70502224  0.44777699  0.15967487    -0.18600
C626        C  0.67711325  0.46262465  0.15885989     0.03800
C627        C  0.66856869  0.47921934  0.18451731     0.18000
C628        C  0.68844383  0.48287305  0.20841923    -0.20000
C629        C  0.64104468  0.49388097  0.18541648    -0.21300
C630        C  0.62198452  0.49316573  0.16105002    -0.19800
C631        C  0.63020436  0.47820432  0.13501051     0.19400
C632        C  0.65787054  0.46273423  0.13329304     0.01500
C633        C  0.66540815  0.44927898  0.10569993    -0.14600
C634        C  0.64604120  0.45103658  0.08109815    -0.12300
C635        C  0.61846985  0.46551262  0.08352747     0.01000
C636        C  0.61086789  0.47909849  0.11051740    -0.24500
H637        H  0.74714013  0.44289547  0.18214421     0.09000
H638        H  0.71269974  0.43396687  0.14156617     0.12600
H639        H  0.68269359  0.49773526  0.22661597     0.11300
H640        H  0.63444300  0.50650885  0.20492124     0.12500
H641        H  0.60092620  0.50503753  0.16233600     0.11500
H642        H  0.68622478  0.43767674  0.10239120     0.08600
H643        H  0.65233625  0.44063803  0.06030870     0.11900
H644        H  0.58974621  0.49081977  0.11239745     0.13800
C645        C  0.89330523  0.62763921  0.00249345    -0.01700
C646        C  0.89833829  0.65232011  0.98389888    -0.09800
C647        C  0.88091687  0.67822771  0.98624932    -0.18600
C648        C  0.85840634  0.68064336  0.00811896     0.03800
C649        C  0.85483153  0.65623757  0.02818270     0.18000
C650        C  0.87146981  0.62976805  0.02458698    -0.20000
C651        C  0.83477834  0.65845195  0.05188223    -0.21300
C652        C  0.81710886  0.68374764  0.05529033    -0.19800
C653        C  0.81786753  0.70678210  0.03416995     0.19400
C654        C  0.83873172  0.70586335  0.01041612     0.01500
C655        C  0.83707507  0.72886698  0.98869076    -0.14600
C656        C  0.81310526  0.74915517  0.98838217    -0.12300
C657        C  0.79116774  0.74809466  0.01049464     0.01000
C658        C  0.79556678  0.72886216  0.03484677    -0.24500
H659        H  0.91579669  0.65146514  0.96727903     0.09000
H660        H  0.88590093  0.69622976  0.97109355     0.12600
H661        H  0.86825530  0.61118572  0.03976392     0.11300
H662        H  0.83247788  0.64031349  0.06772573     0.12500
H663        H  0.80133022  0.68439553  0.07352848     0.11500
H664        H  0.85212627  0.72977634  0.97001779     0.08600
H665        H  0.80991546  0.76335818  0.96903767     0.11900
H666        H  0.77831859  0.72755108  0.05171139     0.13800
C667        C  0.76988827  0.30847620  0.01710158    -0.01700
C668        C  0.79791591  0.30063616  0.00594325    -0.09800
C669        C  0.81891844  0.32274405  0.99878840    -0.18600
C670        C  0.81247165  0.35356092  0.00272085     0.03800
C671        C  0.78351017  0.36127512  0.01291877     0.18000
C672        C  0.76275473  0.33889208  0.01996411    -0.20000
C673        C  0.77575542  0.39126939  0.01723716    -0.21300
C674        C  0.79654592  0.41383018  0.01294562    -0.19800
C675        C  0.82573390  0.40706872  0.00429322     0.19400
C676        C  0.83390706  0.37691885  0.99821428     0.01500
C677        C  0.86343691  0.37148189  0.98881870    -0.14600
C678        C  0.88437128  0.39451471  0.98761138    -0.12300
C679        C  0.87681475  0.42400224  0.99538520     0.01000
C680        C  0.84703110  0.43019533  0.00269640    -0.24500
H681        H  0.80418202  0.27734217  0.00425054     0.09000
H682        H  0.84035618  0.31500256  0.99120226     0.12600
H683        H  0.74124109  0.34512387  0.02907073     0.11300
H684        H  0.75360242  0.39729358  0.02476002     0.12500
H685        H  0.78993793  0.43670803  0.01721005     0.11500
H686        H  0.87119994  0.34952105  0.98281225     0.08600
H687        H  0.90690163  0.38895993  0.98095112     0.11900
H688        H  0.84062762  0.45283254  0.00833928     0.13800
C689        C  0.08842777  0.60907839  0.99194058    -0.01700
C690        C  0.11229532  0.60172976  0.97328287    -0.09800
C691        C  0.13548821  0.62184661  0.96854697    -0.18600
C692        C  0.13580353  0.65002625  0.98278531     0.03800
C693        C  0.11209260  0.65696164  0.00253727     0.18000
C694        C  0.08835083  0.63685387  0.00635352    -0.20000
C695        C  0.11259784  0.68363295  0.01880801    -0.21300
C696        C  0.13670206  0.70308374  0.01667961    -0.19800
C697        C  0.16043140  0.69692768  0.99739089     0.19400
C698        C  0.15948495  0.67096154  0.97914015     0.01500
C699        C  0.18264663  0.66673805  0.95840074    -0.14600
C700        C  0.20743177  0.68530887  0.95839287    -0.12300
C701        C  0.21013117  0.70882432  0.97882656     0.01000
C702        C  0.18581484  0.71561687  0.99722779    -0.24500
H703        H  0.11283407  0.58041326  0.96191658     0.09000
H704        H  0.15323563  0.61437348  0.95421095     0.12600
H705        H  0.07014615  0.64248408  0.02118687     0.11300
H706        H  0.09465316  0.68904646  0.03400974     0.12500
H707        H  0.13691340  0.72293427  0.03043544     0.11500
H708        H  0.18261050  0.64881313  0.94239767     0.08600
H709        H  0.22568682  0.68000054  0.94351871     0.11900
H710        H  0.18757295  0.73386403  0.01296322     0.13800
C711        C  0.07462988  0.41080290  0.99981564    -0.01700
C712        C  0.10359095  0.41677032  0.00995911    -0.09800
C713        C  0.12562958  0.39471836  0.01029131    -0.18600
C714        C  0.11978708  0.36544521  0.00019024     0.03800
C715        C  0.09023919  0.35886716  0.99077817     0.18000
C716        C  0.06800911  0.38149620  0.99052078    -0.20000
C717        C  0.08324192  0.32977134  0.98165721    -0.21300
C718        C  0.10502169  0.30731970  0.98120445    -0.19800
C719        C  0.13465204  0.31339908  0.98921361     0.19400
C720        C  0.14232872  0.34264983  0.99886200     0.01500
C721        C  0.17252595  0.34817569  0.00583507    -0.14600
C722        C  0.19422889  0.32612483  0.00250881    -0.12300
C723        C  0.18703306  0.29742392  0.99257088     0.01000
C724        C  0.15693092  0.29088820  0.98657778    -0.24500
H725        H  0.10938903  0.43879697  0.01794951     0.09000
H726        H  0.14705398  0.40140481  0.01878992     0.12600
H727        H  0.04570065  0.37634848  0.98276918     0.11300
H728        H  0.06075061  0.32434064  0.97470340     0.12500
H729        H  0.09876289  0.28518401  0.97387172     0.11500
H730        H  0.18043248  0.36966579  0.01295431     0.08600
H731        H  0.21723631  0.33186656  0.00710328     0.11900
H732        H  0.15111548  0.26894983  0.97832207     0.13800
C733        C  0.88716182  0.53955920  0.89797953    -0.01700
C734        C  0.85624147  0.54001286  0.90198213    -0.09800
C735        C  0.83717323  0.54539313  0.87779030    -0.18600
C736        C  0.84864939  0.54986584  0.84873477     0.03800
C737        C  0.88003397  0.55074366  0.84517096     0.18000
C738        C  0.89879372  0.54650557  0.86975747    -0.20000
C739        C  0.89260089  0.55332495  0.81673234    -0.21300
C740        C  0.87476142  0.55090226  0.79147285    -0.19800
C741        C  0.84394884  0.54750085  0.79432518     0.19400
C742        C  0.83029633  0.55003953  0.82276496     0.01500
C743        C  0.79890990  0.54986866  0.82399483    -0.14600
C744        C  0.78232426  0.54083755  0.79928302    -0.12300
C745        C  0.79674056  0.53185941  0.77302011     0.01000
C746        C  0.82704462  0.53846182  0.76959900    -0.24500
H747        H  0.84670648  0.53518243  0.92361207     0.09000
H748        H  0.81359027  0.54401115  0.88211149     0.12600
H749        H  0.92270670  0.54692680  0.86638796     0.11300
H750        H  0.91655348  0.55463866  0.81397878     0.12500
H751        H  0.88525124  0.55006677  0.76974665     0.11500
H752        H  0.78687333  0.55478307  0.84420885     0.08600
H753        H  0.75852204  0.53789513  0.80186047     0.11900
H754        H  0.83824489  0.53311302  0.74887972     0.13800
C755        C  0.08128653  0.51836776  0.90098618    -0.01700
C756        C  0.07389339  0.51473700  0.87082480    -0.09800
C757        C  0.09584998  0.51508370  0.84897034    -0.18600
C758        C  0.12615564  0.51905265  0.85660719     0.03800
C759        C  0.13357567  0.52301470  0.88720165     0.18000
C760        C  0.11118024  0.52309378  0.90892899    -0.20000
C761        C  0.16339035  0.52577588  0.89605013    -0.21300
C762        C  0.18614915  0.52292029  0.87531183    -0.19800
C763        C  0.17952791  0.51818232  0.84516228     0.19400
C764        C  0.14945246  0.51764387  0.83516718     0.01500
C765        C  0.14403564  0.51480491  0.80422129    -0.14600
C766        C  0.16732816  0.50925733  0.78453611    -0.12300
C767        C  0.19667492  0.50665518  0.79501617     0.01000
C768        C  0.20276995  0.51271944  0.82510304    -0.24500
H769        H  0.05102793  0.51098369  0.86401226     0.09000
H770        H  0.08844202  0.51118321  0.82642688     0.12600
H771        H  0.11720478  0.52616635  0.93217335     0.11300
H772        H  0.16918663  0.52900826  0.91931981     0.12500
H773        H  0.20906867  0.52384718  0.88298595     0.11500
H774        H  0.12202164  0.51615788  0.79460748     0.08600
H775        H  0.16207216  0.50574199  0.76120005     0.11900
H776        H  0.22551913  0.51174902  0.83331684     0.13800
C777        C  0.08278147  0.51919032  0.09687781    -0.01700
C778        C  0.07841988  0.51444587  0.12739984    -0.09800
C779        C  0.10238634  0.51612047  0.14730956    -0.18600
C780        C  0.13149814  0.52260437  0.13711630     0.03800
C781        C  0.13573767  0.52708379  0.10609437     0.18000
C782        C  0.11147395  0.52600566  0.08655765    -0.20000
C783        C  0.16431079  0.53162248  0.09453998    -0.21300
C784        C  0.18912095  0.53013288  0.11307475    -0.19800
C785        C  0.18571749  0.52536004  0.14370239     0.19400
C786        C  0.15678757  0.52325246  0.15634663     0.01500
C787        C  0.15450438  0.52117621  0.18765025    -0.14600
C788        C  0.17983769  0.51707166  0.20521270    -0.12300
C789        C  0.20806393  0.51477933  0.19206815     0.01000
C790        C  0.21104487  0.52108053  0.16159483    -0.24500
H791        H  0.05655736  0.50887258  0.13586321     0.09000
H792        H  0.09764610  0.51122333  0.17036034     0.12600
H793        H  0.11520411  0.52994081  0.06298573     0.11300
H794        H  0.16758838  0.53510686  0.07083857     0.12500
H795        H  0.21109179  0.53225548  0.10334471     0.11500
H796        H  0.13340964  0.52186659  0.19907122     0.08600
H797        H  0.17696095  0.51356956  0.22894185     0.11900
H798        H  0.23288449  0.52048056  0.15132381     0.13800
C799        C  0.88556773  0.54571739  0.09662397    -0.01700
C800        C  0.89514341  0.55026484  0.12607970    -0.09800
C801        C  0.87545180  0.56009242  0.14788694    -0.18600
C802        C  0.84506723  0.56492765  0.14117418     0.03800
C803        C  0.83536629  0.56097611  0.11122393     0.18000
C804        C  0.85578705  0.55232305  0.08912529    -0.20000
C805        C  0.80498507  0.56332933  0.10409858    -0.21300
C806        C  0.78384283  0.56527382  0.12669917    -0.19800
C807        C  0.79291814  0.56629611  0.15660258     0.19400
C808        C  0.82351147  0.56957443  0.16385645     0.01500
C809        C  0.83125685  0.57353387  0.19414578    -0.14600
C810        C  0.81110942  0.56573884  0.21636154    -0.12300
C811        C  0.78308380  0.55450680  0.20843333     0.01000
C812        C  0.77252706  0.55967549  0.17928624    -0.24500
H813        H  0.91800060  0.54579354  0.13258582     0.09000
H814        H  0.88428871  0.56189427  0.17021810     0.12600
H815        H  0.84806107  0.54924086  0.06639445     0.11300
H816        H  0.79740342  0.56094054  0.08124118     0.12500
H817        H  0.76041606  0.56382401  0.12090595     0.11500
H818        H  0.85340299  0.57982229  0.20112284     0.08600
H819        H  0.81902483  0.56434503  0.23919255     0.11900
H820        H  0.75004980  0.55318987  0.17321716     0.13800
C821        C  0.52753412  0.36803154  0.88130800    -0.01700
C822        C  0.51973668  0.37712183  0.85222823    -0.09800
C823        C  0.52414045  0.35854428  0.82762692    -0.18600
C824        C  0.53654609  0.32974767  0.83096468     0.03800
C825        C  0.54359346  0.31998650  0.86044141     0.18000
C826        C  0.53929773  0.33914427  0.88518729    -0.20000
C827        C  0.55446814  0.29098297  0.86501127    -0.21300
C828        C  0.55736291  0.27118831  0.84120142    -0.19800
C829        C  0.55020226  0.28006067  0.81201307     0.19400
C830        C  0.54085890  0.30982122  0.80628456     0.01500
C831        C  0.53507255  0.31787362  0.77619080    -0.14600
C832        C  0.53431993  0.29629142  0.75357708    -0.12300
C833        C  0.54002214  0.26626963  0.76002709     0.01000
C834        C  0.55010650  0.25878398  0.78886719    -0.24500
H835        H  0.51012411  0.39898584  0.84827228     0.09000
H836        H  0.51715287  0.36723035  0.80626836     0.12600
H837        H  0.54534057  0.33161207  0.90740511     0.11300
H838        H  0.55994809  0.28324618  0.88729836     0.12500
H839        H  0.56468252  0.24855524  0.84575206     0.11500
H840        H  0.52943399  0.34037237  0.76972282     0.08600
H841        H  0.52615359  0.30261343  0.73167077     0.11900
H842        H  0.55410146  0.23548668  0.79421893     0.13800
C843        C  0.51520326  0.56507112  0.88408660    -0.01700
C844        C  0.52988703  0.56321045  0.85657402    -0.09800
C845        C  0.52763276  0.58645565  0.83560026    -0.18600
C846        C  0.50993738  0.61205394  0.84129447     0.03800
C847        C  0.49448280  0.61322416  0.86896933     0.18000
C848        C  0.49760449  0.59020631  0.89001158    -0.20000
C849        C  0.47576911  0.63730195  0.87557183    -0.21300
C850        C  0.47203028  0.66043471  0.85532467    -0.19800
C851        C  0.48737317  0.66038648  0.82819842     0.19400
C852        C  0.50678140  0.63646394  0.82070470     0.01500
C853        C  0.52242761  0.63850054  0.79327582    -0.14600
C854        C  0.51970566  0.66381473  0.77478049    -0.12300
C855        C  0.50110900  0.68757128  0.78293029     0.01000
C856        C  0.48415361  0.68490419  0.80908487    -0.24500
H857        H  0.54355895  0.54392859  0.85146002     0.09000
H858        H  0.53968033  0.58367649  0.81501946     0.12600
H859        H  0.48574164  0.59160144  0.91101392     0.11300
H860        H  0.46382195  0.63820202  0.89653811     0.12500
H861        H  0.45738424  0.67879522  0.86117480     0.11500
H862        H  0.53781787  0.62142540  0.78618054     0.08600
H863        H  0.53341620  0.66550580  0.75502547     0.11900
H864        H  0.46954697  0.70308156  0.81565103     0.13800
C865        C  0.52755662  0.56595851  0.08256162    -0.01700
C866        C  0.52623414  0.55946762  0.11322649    -0.09800
C867        C  0.52789612  0.58222645  0.13464112    -0.18600
C868        C  0.53084112  0.61248406  0.12609267     0.03800
C869        C  0.53352283  0.61875533  0.09508051     0.18000
C870        C  0.53192745  0.59572552  0.07388371    -0.20000
C871        C  0.53711482  0.64812724  0.08519394    -0.21300
C872        C  0.53697459  0.67163938  0.10529582    -0.19800
C873        C  0.53323092  0.66642197  0.13583923     0.19400
C874        C  0.53053093  0.63682309  0.14690596     0.01500
C875        C  0.52668722  0.63316503  0.17812037    -0.14600
C876        C  0.52445923  0.65791755  0.19721260    -0.12300
C877        C  0.52589525  0.68696822  0.18581633     0.01000
C878        C  0.53112679  0.69088105  0.15520195    -0.24500
H879        H  0.52345237  0.53669664  0.12079425     0.09000
H880        H  0.52645275  0.57551427  0.15769643     0.12600
H881        H  0.53367352  0.60120416  0.05038445     0.11300
H882        H  0.53947592  0.65302848  0.06162895     0.12500
H883        H  0.53916391  0.69417306  0.09678381     0.11500
H884        H  0.52448447  0.61148408  0.18828429     0.08600
H885        H  0.52021945  0.65432244  0.22071475     0.11900
H886        H  0.53255928  0.71328479  0.14613066     0.13800
C887        C  0.52638106  0.27543723  0.21585006    -0.01700
C888        C  0.54377485  0.26664008  0.19145151    -0.09800
C889        C  0.54651388  0.28516729  0.16628936    -0.18600
C890        C  0.53153804  0.31301555  0.16481875     0.03800
C891        C  0.51685320  0.32300036  0.19111686     0.18000
C892        C  0.51490519  0.30446910  0.21632783    -0.20000
C893        C  0.50208624  0.35049182  0.19143348    -0.21300
C894        C  0.50085367  0.36810883  0.16599761    -0.19800
C895        C  0.51399115  0.35855686  0.13940095     0.19400
C896        C  0.52947251  0.33086076  0.13815657     0.01500
C897        C  0.54110112  0.32205230  0.11006611    -0.14600
C898        C  0.53785605  0.34035028  0.08459463    -0.12300
C899        C  0.52330334  0.36810195  0.08640366     0.01000
C900        C  0.51137248  0.37671970  0.11398657    -0.24500
H901        H  0.55245423  0.24407329  0.19039318     0.09000
H902        H  0.55900090  0.27647660  0.14769567     0.12600
H903        H  0.50107346  0.31120915  0.23497352     0.11300
H904        H  0.49083026  0.35817995  0.21136683     0.12500
H905        H  0.48894306  0.38916997  0.16698294     0.11500
H906        H  0.55265670  0.30111121  0.10716228     0.08600
H907        H  0.54744595  0.33312960  0.06366309     0.11900
H908        H  0.49972816  0.39789836  0.11572402     0.13800
C909        C  0.57738635  0.11944291  0.99873781    -0.01700
C910        C  0.60742775  0.11023093  0.99914074    -0.09800
C911        C  0.63077811  0.13076134  0.00018355    -0.18600
C912        C  0.62522255  0.16175173  0.00111554     0.03800
C913        C  0.59487791  0.17130931  0.00067266     0.18000
C914        C  0.57138784  0.15028329  0.99920899    -0.20000
C915        C  0.58818938  0.20180793  0.00243386    -0.21300
C916        C  0.61077188  0.22281612  0.00593768    -0.19800
C917        C  0.64078888  0.21404789  0.00703970     0.19400
C918        C  0.64859355  0.18350631  0.00361859     0.01500
C919        C  0.67941797  0.17612815  0.00381037    -0.14600
C920        C  0.70126248  0.19777859  0.00961458    -0.12300
C921        C  0.69322461  0.22746069  0.01498966     0.01000
C922        C  0.66296681  0.23550925  0.01286831    -0.24500
H923        H  0.61319584  0.08675319  0.99882052     0.09000
H924        H  0.65301236  0.12159750  0.00084134     0.12600
H925        H  0.54845175  0.15798065  0.99896866     0.11300
H926        H  0.56523859  0.20943509  0.00195074     0.12500
H927        H  0.60466401  0.24611837  0.00823774     0.11500
H928        H  0.68728420  0.15364009  0.00045671     0.08600
H929        H  0.72435959  0.19093023  0.01170720     0.11900
H930        H  0.65650733  0.25837026  0.01758862     0.13800
C931        C  0.28934111  0.78803962  0.98352284    -0.01700
C932        C  0.27986435  0.81207909  0.00108422    -0.09800
C933        C  0.29683766  0.83848148  0.00238566    -0.18600
C934        C  0.32413536  0.84112478  0.98659847     0.03800
C935        C  0.33275581  0.81687735  0.96815435     0.18000
C936        C  0.31508077  0.79136222  0.96623228    -0.20000
C937        C  0.35982461  0.81733144  0.95278957    -0.21300
C938        C  0.37929084  0.84097979  0.95610066    -0.19800
C939        C  0.37190320  0.86507692  0.97435748     0.19400
C940        C  0.34388311  0.86612262  0.98919689     0.01500
C941        C  0.33727771  0.89193154  0.00614236    -0.14600
C942        C  0.35800642  0.91516066  0.00880383    -0.12300
C943        C  0.38603970  0.91309166  0.99516991     0.01000
C944        C  0.39265167  0.88807670  0.97786567    -0.24500
H945        H  0.26036795  0.80985993  0.01506630     0.09000
H946        H  0.28891092  0.85584441  0.01700772     0.12600
H947        H  0.32260702  0.77283681  0.95259153     0.11300
H948        H  0.36643098  0.79877969  0.93877544     0.12500
H949        H  0.40042553  0.84028798  0.94446421     0.11500
H950        H  0.31624073  0.89479063  0.01735817     0.08600
H951        H  0.35226188  0.93463046  0.02190405     0.11900
H952        H  0.41395137  0.88676307  0.96654037     0.13800
C953        C  0.58499237  0.92153012  0.00019124    -0.01700
C954        C  0.57948984  0.89489467  0.01552763    -0.09800
C955        C  0.60099138  0.87243253  0.01736675    -0.18600
C956        C  0.62920303  0.87564744  0.00381537     0.03800
C957        C  0.63488453  0.90256252  0.98800554     0.18000
C958        C  0.61294546  0.92533598  0.98655252    -0.20000
C959        C  0.66234072  0.90638724  0.97365825    -0.21300
C960        C  0.68409161  0.88399482  0.97443267    -0.19800
C961        C  0.67915929  0.85721310  0.98979763     0.19400
C962        C  0.65174464  0.85292205  0.00509987     0.01500
C963        C  0.64794124  0.82589190  0.02085966    -0.14600
C964        C  0.66951967  0.80349392  0.02000835    -0.12300
C965        C  0.69593181  0.80707108  0.00386278     0.01000
C966        C  0.70106258  0.83434161  0.98937328    -0.24500
H967        H  0.55829016  0.89137351  0.02645219     0.09000
H968        H  0.59460422  0.85269227  0.02941858     0.12600
H969        H  0.61742291  0.94573757  0.97436458     0.11300
H970        H  0.66694620  0.92676601  0.96150821     0.12500
H971        H  0.70489195  0.88760694  0.96278941     0.11500
H972        H  0.62832456  0.82104269  0.03371415     0.08600
H973        H  0.66510898  0.78266382  0.03146511     0.11900
H974        H  0.72129953  0.83716791  0.97656319     0.13800
C975        C  0.24754876  0.20313787  0.00316458    -0.01700
C976        C  0.26613348  0.20304487  0.02843500    -0.09800
C977        C  0.28924841  0.18205935  0.03147890    -0.18600
C978        C  0.29449614  0.16053896  0.00904536     0.03800
C979        C  0.27283154  0.15801515  0.98592057     0.18000
C980        C  0.24955392  0.17905991  0.98337796    -0.20000
C981        C  0.27599856  0.13618447  0.96388386    -0.21300
C982        C  0.30101215  0.11782882  0.96332141    -0.19800
C983        C  0.32394253  0.12143807  0.98422527     0.19400
C984        C  0.32110098  0.14269181  0.00757987     0.01500
C985        C  0.34576280  0.14631054  0.02715252    -0.14600
C986        C  0.37211766  0.12972543  0.02333410    -0.12300
C987        C  0.37436233  0.10856026  0.00049146     0.01000
C988        C  0.35004734  0.10433868  0.98132693    -0.24500
H989        H  0.26527887  0.22156055  0.04392258     0.09000
H990        H  0.30375553  0.18435248  0.05057805     0.12600
H991        H  0.23557448  0.17910676  0.96357053     0.11300
H992        H  0.25943424  0.13389451  0.94638139     0.12500
H993        H  0.30302599  0.10154257  0.94558470     0.11500
H994        H  0.34549798  0.16218513  0.04519997     0.08600
H995        H  0.39046887  0.13280758  0.03880517     0.11900
H996        H  0.35167147  0.08781701  0.96373253     0.13800
C997        C  0.46413351  0.11105654  0.89497524    -0.01700
C998        C  0.46518085  0.14203517  0.89874371    -0.09800
C999        C  0.45798082  0.16114255  0.87505958    -0.18600
C1000       C  0.44982670  0.14963590  0.84677319     0.03800
C1001       C  0.44831905  0.11822612  0.84336991     0.18000
C1002       C  0.45500293  0.09947041  0.86735944    -0.20000
C1003       C  0.44192667  0.10555669  0.81555789    -0.21300
C1004       C  0.44034072  0.12333353  0.79025485    -0.19800
C1005       C  0.44410629  0.15415167  0.79256179     0.19400
C1006       C  0.44614567  0.16793181  0.82104295     0.01500
C1007       C  0.44709712  0.19934083  0.82211438    -0.14600
C1008       C  0.45287142  0.21560510  0.79628741    -0.12300
C1009       C  0.45784783  0.20075233  0.76917574     0.01000
C1010       C  0.44945935  0.17082670  0.76671999    -0.24500
H1011       H  0.47203850  0.15153673  0.91987404     0.09000
H1012       H  0.46025883  0.18472812  0.87913248     0.12600
H1013       H  0.45379819  0.07554523  0.86412424     0.11300
H1014       H  0.44029662  0.08157460  0.81301971     0.12500
H1015       H  0.43792114  0.11276675  0.76865115     0.11500
H1016       H  0.44563028  0.21158096  0.84276802     0.08600
H1017       H  0.45720183  0.23927044  0.79839005     0.11900
H1018       H  0.45153709  0.15943525  0.74549581     0.13800
C1019       C  0.48349151  0.91448618  0.90120616    -0.01700
C1020       C  0.47521209  0.88574799  0.91018297    -0.09800
C1021       C  0.47754212  0.86172954  0.89074497    -0.18600
C1022       C  0.48869368  0.86558709  0.86156306     0.03800
C1023       C  0.49579005  0.89499194  0.85206908     0.18000
C1024       C  0.49297419  0.91911892  0.87183001    -0.20000
C1025       C  0.50614073  0.90004365  0.82309100    -0.21300
C1026       C  0.50973150  0.87644662  0.80330717    -0.19800
C1027       C  0.50329400  0.84720635  0.81212177     0.19400
C1028       C  0.49302312  0.84133007  0.84151055     0.01500
C1029       C  0.48786160  0.81135998  0.84970128    -0.14600
C1030       C  0.49162882  0.78836234  0.82928878    -0.12300
C1031       C  0.50073676  0.79425161  0.80002713     0.01000
C1032       C  0.50696671  0.82375379  0.79169156    -0.24500
H1033       H  0.46701691  0.88168510  0.93253154     0.09000
H1034       H  0.47051758  0.84046570  0.89936964     0.12600
H1035       H  0.49912512  0.94135061  0.86461387     0.11300
H1036       H  0.51153908  0.92240116  0.81568556     0.12500
H1037       H  0.51771719  0.88108955  0.78099231     0.11500
H1038       H  0.48100418  0.80480973  0.87174435     0.08600
H1039       H  0.48709935  0.76578067  0.83656243     0.11900
H1040       H  0.51457930  0.82855042  0.76926394     0.13800
C1041       C  0.47638210  0.91595436  0.09634763    -0.01700
C1042       C  0.47957501  0.92044363  0.12714208    -0.09800
C1043       C  0.47874278  0.89623309  0.14700781    -0.18600
C1044       C  0.47469991  0.86667180  0.13655539     0.03800
C1045       C  0.47009878  0.86258100  0.10547702     0.18000
C1046       C  0.47084390  0.88694736  0.08597168    -0.20000
C1047       C  0.46556616  0.83405380  0.09372741    -0.21300
C1048       C  0.46700314  0.80911489  0.11200043    -0.19800
C1049       C  0.47306091  0.81212138  0.14244085     0.19400
C1050       C  0.47613257  0.84091880  0.15542387     0.01500
C1051       C  0.48171544  0.84247600  0.18644558    -0.14600
C1052       C  0.48652325  0.81658627  0.20322489    -0.12300
C1053       C  0.48584938  0.78840646  0.18967544     0.01000
C1054       C  0.47760146  0.78634577  0.15961903    -0.24500
H1055       H  0.48337918  0.94261572  0.13588451     0.09000
H1056       H  0.48188322  0.90128740  0.17030463     0.12600
H1057       H  0.46758749  0.88303640  0.06231648     0.11300
H1058       H  0.46168438  0.83092565  0.07005274     0.12500
H1059       H  0.46429859  0.78725439  0.10206623     0.11500
H1060       H  0.48357242  0.86336269  0.19815503     0.08600
H1061       H  0.49232766  0.81883608  0.22659290     0.11900
H1062       H  0.47630984  0.76462862  0.14906789     0.13800
C1063       C  0.46130165  0.11408211  0.09390075    -0.01700
C1064       C  0.45341434  0.10380058  0.12232000    -0.09800
C1065       C  0.44332778  0.12341471  0.14391223    -0.18600
C1066       C  0.44136684  0.15423597  0.13794929     0.03800
C1067       C  0.44964816  0.16470520  0.10920417     0.18000
C1068       C  0.45869526  0.14451521  0.08721709    -0.20000
C1069       C  0.45048595  0.19533788  0.10321026    -0.21300
C1070       C  0.44618584  0.21577736  0.12609514    -0.19800
C1071       C  0.43959359  0.20586922  0.15495410     0.19400
C1072       C  0.43449208  0.17518684  0.16054332     0.01500
C1073       C  0.42532619  0.16666362  0.18942384    -0.14600
C1074       C  0.42866253  0.18631816  0.21317349    -0.12300
C1075       C  0.44130059  0.21440207  0.20824243     0.01000
C1076       C  0.44171088  0.22565875  0.17896493    -0.24500
H1077       H  0.45483602  0.08034321  0.12803695     0.09000
H1078       H  0.43853750  0.11392737  0.16547642     0.12600
H1079       H  0.46467199  0.15266301  0.06525085     0.11300
H1080       H  0.45655919  0.20347897  0.08128191     0.12500
H1081       H  0.44951487  0.23928074  0.12155566     0.11500
H1082       H  0.41782537  0.14442029  0.19460458     0.08600
H1083       H  0.42598531  0.17784161  0.23565637     0.11900
H1084       H  0.44939328  0.24819139  0.17481394     0.13800
C1085       C  0.25685047  0.01519754  0.19500839    -0.01700
C1086       C  0.27372474  0.04130260  0.19248257    -0.09800
C1087       C  0.29607955  0.04381825  0.17089639    -0.18600
C1088       C  0.30225937  0.02004781  0.15113306     0.03800
C1089       C  0.28253235  0.99529169  0.15131254     0.18000
C1090       C  0.26035119  0.99293120  0.17336318    -0.20000
C1091       C  0.28632257  0.97215410  0.13071810    -0.21300
C1092       C  0.30965491  0.97277313  0.11034451    -0.19800
C1093       C  0.33079176  0.99566520  0.11116215     0.19400
C1094       C  0.32778981  0.01936723  0.13198362     0.01500
C1095       C  0.35132811  0.04029485  0.13386387    -0.14600
C1096       C  0.37654268  0.03788527  0.11555995    -0.12300
C1097       C  0.37861995  0.01525661  0.09416466     0.01000
C1098       C  0.35543101  0.99447642  0.09185817    -0.24500
H1099       H  0.27178002  0.05855684  0.20927690     0.09000
H1100       H  0.30898003  0.06407052  0.17091205     0.12600
H1101       H  0.24776793  0.97243054  0.17547830     0.11300
H1102       H  0.27127943  0.95330111  0.13053146     0.12500
H1103       H  0.31191718  0.95451742  0.09467839     0.11500
H1104       H  0.35118991  0.05824109  0.14986102     0.08600
H1105       H  0.39409489  0.05430315  0.11752098     0.11900
H1106       H  0.35698251  0.97683499  0.07538797     0.13800
C1107       C  0.70076576  0.01415655  0.79345376    -0.01700
C1108       C  0.67195801  0.02148515  0.78355536    -0.09800
C1109       C  0.64838936  0.02492739  0.80353408    -0.18600
C1110       C  0.65268249  0.02082630  0.83450295     0.03800
C1111       C  0.68231505  0.01520754  0.84475715     0.18000
C1112       C  0.70603052  0.01182943  0.82423352    -0.20000
C1113       C  0.68783428  0.01197159  0.87536533    -0.21300
C1114       C  0.66462776  0.01363618  0.89589607    -0.19800
C1115       C  0.63509899  0.01787419  0.88639616     0.19400
C1116       C  0.62862103  0.02147112  0.85555529     0.01500
C1117       C  0.59826287  0.02460804  0.84714314    -0.14600
C1118       C  0.57541985  0.02398230  0.86840526    -0.12300
C1119       C  0.58184837  0.02057215  0.89887557     0.01000
C1120       C  0.61195459  0.01786628  0.90759305    -0.24500
H1121       H  0.66734069  0.02324788  0.75985727     0.09000
H1122       H  0.62692496  0.03014729  0.79395678     0.12600
H1123       H  0.72810923  0.00569818  0.83209021     0.11300
H1124       H  0.71026135  0.00787127  0.88349774     0.12500
H1125       H  0.66975824  0.01089263  0.91939566     0.11500
H1126       H  0.59136798  0.02700527  0.82420641     0.08600
H1127       H  0.55255383  0.02616308  0.86084854     0.11900
H1128       H  0.61749983  0.01507023  0.93099916     0.13800
C1129       C  0.27639375  0.03188340  0.78171179    -0.01700
C1130       C  0.26883007  0.01378420  0.80589115    -0.09800
C1131       C  0.28639474  0.01384772  0.83179900    -0.18600
C1132       C  0.31252079  0.03148754  0.83358179     0.03800
C1133       C  0.31864727  0.05118232  0.80950217     0.18000
C1134       C  0.30013792  0.05175457  0.78437298    -0.20000
C1135       C  0.34454962  0.06841505  0.80939412    -0.21300
C1136       C  0.36561776  0.06517878  0.83186706    -0.19800
C1137       C  0.36100267  0.04506154  0.85521853     0.19400
C1138       C  0.33385572  0.02886381  0.85719983     0.01500
C1139       C  0.32983689  0.01004692  0.88220418    -0.14600
C1140       C  0.35250450  0.00631086  0.90337420    -0.12300
C1141       C  0.37988572  0.02086135  0.90008364     0.01000
C1142       C  0.38371990  0.04066277  0.87632630    -0.24500
H1143       H  0.25084270  0.99785990  0.80384157     0.09000
H1144       H  0.28017536  0.99837392  0.84909393     0.12600
H1145       H  0.30613748  0.06541630  0.76531026     0.11300
H1146       H  0.34920046  0.08351258  0.79108704     0.12500
H1147       H  0.38594912  0.07803460  0.83064056     0.11500
H1148       H  0.30949645  0.99792871  0.88597346     0.08600
H1149       H  0.34879302  0.99155622  0.92215722     0.11900
H1150       H  0.40441485  0.05289216  0.87441406     0.13800
C1151       C  0.52365192  0.06398284  0.38118666    -0.01700
C1152       C  0.53272139  0.09268537  0.38981521    -0.09800
C1153       C  0.53431223  0.11592141  0.36919095    -0.18600
C1154       C  0.52631704  0.11146400  0.33906221     0.03800
C1155       C  0.51664301  0.08249277  0.33043736     0.18000
C1156       C  0.51597921  0.05901269  0.35129214    -0.20000
C1157       C  0.50669790  0.07738207  0.30128546    -0.21300
C1158       C  0.50490597  0.10071087  0.28087803    -0.19800
C1159       C  0.51396296  0.12949232  0.28884793     0.19400
C1160       C  0.52604492  0.13507641  0.31759192     0.01500
C1161       C  0.53641437  0.16429737  0.32377996    -0.14600
C1162       C  0.53203922  0.18763690  0.30336794    -0.12300
C1163       C  0.51740537  0.18241783  0.27635129     0.01000
C1164       C  0.50968766  0.15306949  0.26869360    -0.24500
H1165       H  0.53870909  0.09736715  0.41276925     0.09000
H1166       H  0.54102332  0.13734017  0.37772026     0.12600
H1167       H  0.50853684  0.03708608  0.34441035     0.11300
H1168       H  0.49924444  0.05542639  0.29453173     0.12500
H1169       H  0.49593705  0.09630582  0.25883751     0.11500
H1170       H  0.54731053  0.16993288  0.34447535     0.08600
H1171       H  0.53840800  0.21008680  0.30951237     0.11900
H1172       H  0.49883176  0.14883560  0.24744533     0.13800
C1173       C  0.51525034  0.86203552  0.38607322    -0.01700
C1174       C  0.49525380  0.83830735  0.38859763    -0.09800
C1175       C  0.49786637  0.81329836  0.37024737    -0.18600
C1176       C  0.52110677  0.81106288  0.34910793     0.03800
C1177       C  0.54195855  0.83487346  0.34753791     0.18000
C1178       C  0.53849246  0.86027930  0.36549815    -0.20000
C1179       C  0.56621635  0.83315891  0.32811699    -0.21300
C1180       C  0.56951469  0.80891414  0.30912880    -0.19800
C1181       C  0.54813561  0.78626295  0.30845734     0.19400
C1182       C  0.52392467  0.78661828  0.32883161     0.01500
C1183       C  0.50244478  0.76368001  0.32640113    -0.14600
C1184       C  0.50288985  0.74387850  0.30231017    -0.12300
C1185       C  0.52521653  0.74566099  0.28070657     0.01000
C1186       C  0.54913715  0.76506357  0.28543905    -0.24500
H1187       H  0.47756953  0.83909373  0.40498779     0.09000
H1188       H  0.48165739  0.79593153  0.37345239     0.12600
H1189       H  0.55454983  0.87827521  0.36428537     0.11300
H1190       H  0.58248680  0.85095097  0.32723768     0.12500
H1191       H  0.58809388  0.80868108  0.29374870     0.11500
H1192       H  0.48359341  0.76211337  0.34112759     0.08600
H1193       H  0.48391931  0.72941515  0.29875462     0.11900
H1194       H  0.56615641  0.76684256  0.26839979     0.13800
C1195       C  0.52728548  0.06802858  0.57621998    -0.01700
C1196       C  0.52942225  0.09801490  0.56708852    -0.09800
C1197       C  0.53076716  0.12125872  0.58797660    -0.18600
C1198       C  0.52999233  0.11536797  0.61898151     0.03800
C1199       C  0.52841469  0.08494843  0.62807295     0.18000
C1200       C  0.52704593  0.06185715  0.60687914    -0.20000
C1201       C  0.52791337  0.07760195  0.65838602    -0.21300
C1202       C  0.52819570  0.09975329  0.67998877    -0.19800
C1203       C  0.52882037  0.12991239  0.67190502     0.19400
C1204       C  0.53016456  0.13834902  0.64134787     0.01500
C1205       C  0.53072186  0.16935736  0.63476385    -0.14600
C1206       C  0.52850910  0.19086676  0.65752420    -0.12300
C1207       C  0.52587584  0.18215984  0.68740968     0.01000
C1208       C  0.52679966  0.15165987  0.69434695    -0.24500
H1209       H  0.52991269  0.10368841  0.54359491     0.09000
H1210       H  0.53224606  0.14361823  0.57921841     0.12600
H1211       H  0.52550679  0.03892350  0.61442002     0.11300
H1212       H  0.52692265  0.05449560  0.66547601     0.12500
H1213       H  0.52731349  0.09322427  0.70326358     0.11500
H1214       H  0.53183250  0.17760692  0.61218919     0.08600
H1215       H  0.52718092  0.21427199  0.65160282     0.11900
H1216       H  0.52437549  0.14477684  0.71743393     0.13800
C1217       C  0.51721266  0.86642579  0.58170032    -0.01700
C1218       C  0.50321189  0.83883508  0.57704768    -0.09800
C1219       C  0.50501349  0.81605643  0.59844614    -0.18600
C1220       C  0.52162216  0.81991804  0.62500360     0.03800
C1221       C  0.53692156  0.84747150  0.62881759     0.18000
C1222       C  0.53395432  0.87052931  0.60773833    -0.20000
C1223       C  0.55539962  0.85185582  0.65355761    -0.21300
C1224       C  0.55859644  0.82976243  0.67500277    -0.19800
C1225       C  0.54226160  0.80333113  0.67302239     0.19400
C1226       C  0.52339385  0.79782508  0.64815908     0.01500
C1227       C  0.50592573  0.77142974  0.64872043    -0.14600
C1228       C  0.50492638  0.75330099  0.67445247    -0.12300
C1229       C  0.52240330  0.76029981  0.69946030     0.01000
C1230       C  0.54281535  0.78372502  0.69727545    -0.24500
H1231       H  0.49057735  0.83489660  0.55679603     0.09000
H1232       H  0.49366682  0.79548805  0.59344375     0.12600
H1233       H  0.54556909  0.89143402  0.61116038     0.11300
H1234       H  0.56747210  0.87256549  0.65637767     0.12500
H1235       H  0.57286011  0.83403151  0.69408976     0.11500
H1236       H  0.49104042  0.76571573  0.63067389     0.08600
H1237       H  0.48877002  0.73545949  0.67566005     0.11900
H1238       H  0.55648368  0.78912411  0.71655079     0.13800
C1239       C  0.41615224  0.96619288  0.38415621    -0.01700
C1240       C  0.38783341  0.95965615  0.39544953    -0.09800
C1241       C  0.36285670  0.96000182  0.37725624    -0.18600
C1242       C  0.36510328  0.96699305  0.34672268     0.03800
C1243       C  0.39391379  0.97287916  0.33487665     0.18000
C1244       C  0.41919627  0.97240634  0.35363288    -0.20000
C1245       C  0.39714409  0.97947397  0.30452675    -0.21300
C1246       C  0.37234923  0.98064721  0.28582550    -0.19800
C1247       C  0.34372472  0.97578043  0.29714850     0.19400
C1248       C  0.33965083  0.96880074  0.32774010     0.01500
C1249       C  0.31016413  0.96493512  0.33822399    -0.14600
C1250       C  0.28577342  0.96949989  0.31946221    -0.12300
C1251       C  0.28993868  0.97737193  0.28959462     0.01000
C1252       C  0.31900002  0.97925043  0.27830601    -0.24500
H1253       H  0.38472901  0.95414663  0.41877202     0.09000
H1254       H  0.34214173  0.95463686  0.38797878     0.12600
H1255       H  0.44101310  0.97736981  0.34460889     0.11300
H1256       H  0.41894046  0.98394257  0.29523377     0.12500
H1257       H  0.37551048  0.98609743  0.26247865     0.11500
H1258       H  0.30499333  0.95950142  0.36101700     0.08600
H1259       H  0.26354692  0.96773382  0.32864835     0.11900
H1260       H  0.32251183  0.98537096  0.25517503     0.13800
C1261       C  0.71332924  0.95532717  0.70467194    -0.01700
C1262       C  0.68462396  0.94414338  0.70904135    -0.09800
C1263       C  0.66598364  0.93881104  0.68475455    -0.18600
C1264       C  0.67551744  0.94503232  0.65535545     0.03800
C1265       C  0.70593459  0.95211991  0.65086881     0.18000
C1266       C  0.72466277  0.95686616  0.67549963    -0.20000
C1267       C  0.71687676  0.95639826  0.62194724    -0.21300
C1268       C  0.69777475  0.95520684  0.59741313    -0.19800
C1269       C  0.66714320  0.95094804  0.60139537     0.19400
C1270       C  0.65568042  0.94581318  0.63051953     0.01500
C1271       C  0.62458110  0.94379962  0.63395396    -0.14600
C1272       C  0.60561767  0.94701593  0.60965945    -0.12300
C1273       C  0.61672028  0.95213782  0.58084696     0.01000
C1274       C  0.64767785  0.95328806  0.57673088    -0.24500
H1275       H  0.67572540  0.94160581  0.73133548     0.09000
H1276       H  0.64391981  0.93088892  0.68977865     0.12600
H1277       H  0.74720334  0.96461277  0.67174639     0.11300
H1278       H  0.74019810  0.96142404  0.61834271     0.12500
H1279       H  0.70678972  0.95908897  0.57535440     0.11500
H1280       H  0.61404191  0.94101277  0.65533061     0.08600
H1281       H  0.58187832  0.94581082  0.61377237     0.11900
H1282       H  0.65656467  0.95733619  0.55464159     0.13800
C1283       C  0.30598482  0.99867618  0.68340297    -0.01700
C1284       C  0.29871073  0.98509934  0.65629726    -0.09800
C1285       C  0.32087444  0.97727414  0.63610933    -0.18600
C1286       C  0.35120805  0.98323656  0.64228494     0.03800
C1287       C  0.35847085  0.99685566  0.66997929     0.18000
C1288       C  0.33594731  0.00414749  0.69029898    -0.20000
C1289       C  0.38808736  0.00364678  0.67701246    -0.21300
C1290       C  0.41075496  0.99749087  0.65691656    -0.19800
C1291       C  0.40429194  0.98447375  0.62931665     0.19400
C1292       C  0.37446632  0.97687779  0.62169767     0.01500
C1293       C  0.36912609  0.96391235  0.59348353    -0.14600
C1294       C  0.39214355  0.96005499  0.57319657    -0.12300
C1295       C  0.42126228  0.96855153  0.58040859     0.01000
C1296       C  0.42738414  0.97990508  0.60884728    -0.24500
H1297       H  0.27569366  0.98052872  0.65058926     0.09000
H1298       H  0.31338525  0.96697528  0.61575357     0.12600
H1299       H  0.34173002  0.01493349  0.71116328     0.11300
H1300       H  0.39371859  0.01411428  0.69806408     0.12500
H1301       H  0.43343554  0.00336225  0.66282012     0.11500
H1302       H  0.34737304  0.95701540  0.58607972     0.08600
H1303       H  0.38695594  0.95075529  0.55149774     0.11900
H1304       H  0.44991240  0.98650450  0.61460626     0.13800
C1305       C  0.58217532  0.01875171  0.09474090    -0.01700
C1306       C  0.57914483  0.03040830  0.12352596    -0.09800
C1307       C  0.60371899  0.03165857  0.14291118    -0.18600
C1308       C  0.63211084  0.02088785  0.13412847     0.03800
C1309       C  0.63455897  0.00751922  0.10554209     0.18000
C1310       C  0.60995662  0.00703611  0.08612650    -0.20000
C1311       C  0.66147988  0.99444440  0.09656990    -0.21300
C1312       C  0.68585801  0.99353160  0.11583394    -0.19800
C1313       C  0.68434681  0.00687872  0.14400665     0.19400
C1314       C  0.65791129  0.02195746  0.15299387     0.01500
C1315       C  0.65843942  0.03714737  0.18061857    -0.14600
C1316       C  0.68301729  0.03476025  0.19984224    -0.12300
C1317       C  0.70768212  0.01718300  0.19221031     0.01000
C1318       C  0.70863524  0.00415373  0.16382365    -0.24500
H1319       H  0.55788455  0.03920173  0.13085965     0.09000
H1320       H  0.59978147  0.04075431  0.16480494     0.12600
H1321       H  0.61242964  0.99716614  0.06418699     0.11300
H1322       H  0.66345077  0.98414264  0.07479529     0.12500
H1323       H  0.70603195  0.98231334  0.10865059     0.11500
H1324       H  0.63986313  0.05040164  0.18823105     0.08600
H1325       H  0.68165268  0.04461792  0.22185064     0.11900
H1326       H  0.72751139  0.99017393  0.15797039     0.13800
C1327       C  0.71413945  0.94054302  0.26686330    -0.01700
C1328       C  0.68498667  0.93344055  0.25826556    -0.09800
C1329       C  0.66423052  0.92519208  0.27972152    -0.18600
C1330       C  0.67233379  0.92451442  0.31022742     0.03800
C1331       C  0.70310615  0.92539255  0.31757494     0.18000
C1332       C  0.72395292  0.93231042  0.29550726    -0.20000
C1333       C  0.71244017  0.92313978  0.34732977    -0.21300
C1334       C  0.69165348  0.92358716  0.37021810    -0.19800
C1335       C  0.66130582  0.92695617  0.36369354     0.19400
C1336       C  0.65111176  0.92622444  0.33360847     0.01500
C1337       C  0.62042789  0.93045402  0.32804478    -0.14600
C1338       C  0.60110954  0.93748857  0.35110262    -0.12300
C1339       C  0.61154033  0.94011331  0.38052382     0.01000
C1340       C  0.64138876  0.93326945  0.38686983    -0.24500
H1341       H  0.67717063  0.93786111  0.23578209     0.09000
H1342       H  0.64168076  0.92190696  0.27207319     0.12600
H1343       H  0.74696674  0.93608074  0.30192273     0.11300
H1344       H  0.73594456  0.92306574  0.35300880     0.12500
H1345       H  0.69951267  0.92349792  0.39312003     0.11500
H1346       H  0.61085151  0.93002285  0.30597239     0.08600
H1347       H  0.57793666  0.94163213  0.34555484     0.11900
H1348       H  0.64952564  0.93435940  0.40965404     0.13800
C1349       C  0.28890140  0.77483629  0.45614166    -0.01700
C1350       C  0.31344090  0.76351563  0.47195165    -0.09800
C1351       C  0.34000511  0.78007449  0.47406278    -0.18600
C1352       C  0.34242635  0.80879643  0.46083302     0.03800
C1353       C  0.31786878  0.81917313  0.44352728     0.18000
C1354       C  0.29200372  0.80197677  0.44083510    -0.20000
C1355       C  0.31837199  0.84748686  0.43035192    -0.21300
C1356       C  0.34232077  0.86639642  0.43485501    -0.19800
C1357       C  0.36655744  0.85738256  0.45238140     0.19400
C1358       C  0.36750482  0.82822109  0.46504490     0.01500
C1359       C  0.39320830  0.82027450  0.48176374    -0.14600
C1360       C  0.41643558  0.84073349  0.48627439    -0.12300
C1361       C  0.41457133  0.86983756  0.47473450     0.01000
C1362       C  0.38968437  0.87772379  0.45751564    -0.24500
H1363       H  0.31141496  0.74288949  0.48437976     0.09000
H1364       H  0.35769433  0.77059182  0.48743791     0.12600
H1365       H  0.27304419  0.81097410  0.42862054     0.11300
H1366       H  0.29965353  0.85545154  0.41716069     0.12500
H1367       H  0.34166247  0.88845754  0.42489997     0.11500
H1368       H  0.39591956  0.79844510  0.49157799     0.08600
H1369       H  0.43572922  0.83389262  0.49922908     0.11900
H1370       H  0.38841640  0.89984418  0.44771723     0.13800
C1371       C  0.71576591  0.74001342  0.46618192    -0.01700
C1372       C  0.69277359  0.73702347  0.48695319    -0.09800
C1373       C  0.66921512  0.75772973  0.48787314    -0.18600
C1374       C  0.66833109  0.78259003  0.46826771     0.03800
C1375       C  0.69003719  0.78371455  0.44530086     0.18000
C1376       C  0.71280050  0.76204784  0.44395642    -0.20000
C1377       C  0.69042867  0.80775571  0.42527167    -0.21300
C1378       C  0.67059683  0.83146583  0.42835095    -0.19800
C1379       C  0.64979775  0.83176638  0.45150516     0.19400
C1380       C  0.64782632  0.80705913  0.47144308     0.01500
C1381       C  0.62599191  0.80843270  0.49413002    -0.14600
C1382       C  0.60711631  0.83323566  0.49685401    -0.12300
C1383       C  0.60974442  0.85770126  0.47756129     0.01000
C1384       C  0.63110010  0.85681072  0.45493079    -0.24500
H1385       H  0.69479656  0.72072048  0.50472453     0.09000
H1386       H  0.65321198  0.75484052  0.50549190     0.12600
H1387       H  0.73084511  0.76500663  0.42817995     0.11300
H1388       H  0.70686494  0.80871061  0.40764507     0.12500
H1389       H  0.67196148  0.85001813  0.41286184     0.11500
H1390       H  0.62291639  0.79067364  0.51004363     0.08600
H1391       H  0.59048183  0.83342093  0.51431971     0.11900
H1392       H  0.63272461  0.87544886  0.43954677     0.13800
C1393       C  0.72445707  0.17982535  0.48841721    -0.01700
C1394       C  0.69869532  0.18500404  0.47143185    -0.09800
C1395       C  0.67819337  0.16183845  0.46631938    -0.18600
C1396       C  0.68301888  0.13274916  0.47814354     0.03800
C1397       C  0.71003060  0.12751711  0.49394581     0.18000
C1398       C  0.73014591  0.15085103  0.49893910    -0.20000
C1399       C  0.71657312  0.09920412  0.50553243    -0.21300
C1400       C  0.69664633  0.07582653  0.50218040    -0.19800
C1401       C  0.66929613  0.08029778  0.48779921     0.19400
C1402       C  0.66197614  0.10882472  0.47558722     0.01500
C1403       C  0.63353612  0.11231724  0.46238090    -0.14600
C1404       C  0.61309979  0.08883071  0.46211615    -0.12300
C1405       C  0.62036143  0.06082488  0.47440069     0.01000
C1406       C  0.64882423  0.05658802  0.48656779    -0.24500
H1407       H  0.69368222  0.20726104  0.46336238     0.09000
H1408       H  0.65854567  0.16745243  0.45353590     0.12600
H1409       H  0.75007810  0.14668288  0.51212728     0.11300
H1410       H  0.73722295  0.09515078  0.51753288     0.12500
H1411       H  0.70236991  0.05425188  0.51160082     0.11500
H1412       H  0.62614651  0.13317702  0.45283731     0.08600
H1413       H  0.59127071  0.09275300  0.45240934     0.11900
H1414       H  0.65457256  0.03519386  0.49640642     0.13800
C1415       C  0.42360954  0.06851392  0.47085868    -0.01700
C1416       C  0.39486304  0.06138662  0.46079602    -0.09800
C1417       C  0.37292303  0.08337714  0.45734190    -0.18600
C1418       C  0.37870809  0.11353857  0.46446600     0.03800
C1419       C  0.40818981  0.12099308  0.47348808     0.18000
C1420       C  0.43032269  0.09864051  0.47629472    -0.20000
C1421       C  0.41511122  0.15056854  0.48069475    -0.21300
C1422       C  0.39303518  0.17253977  0.48096914    -0.19800
C1423       C  0.36343797  0.16562081  0.47385072     0.19400
C1424       C  0.35602196  0.13623037  0.46447328     0.01500
C1425       C  0.32586616  0.13050781  0.45718032    -0.14600
C1426       C  0.30375539  0.15207543  0.46186890    -0.12300
C1427       C  0.31088312  0.18035215  0.47302436     0.01000
C1428       C  0.34094006  0.18744125  0.47770469    -0.24500
H1429       H  0.38915652  0.03852156  0.45556644     0.09000
H1430       H  0.35143342  0.07588852  0.44969690     0.12600
H1431       H  0.45252954  0.10462535  0.48372808     0.11300
H1432       H  0.43758991  0.15657216  0.48718906     0.12500
H1433       H  0.39899566  0.19492752  0.48777245     0.11500
H1434       H  0.31843273  0.10917985  0.44905951     0.08600
H1435       H  0.28067421  0.14620491  0.45789185     0.11900
H1436       H  0.34658521  0.20920347  0.48654774     0.13800
C1437       C  0.89029500  0.01870185  0.60474439    -0.01700
C1438       C  0.89839354  0.00406577  0.63132900    -0.09800
C1439       C  0.88075053  0.00606508  0.65694415    -0.18600
C1440       C  0.85427563  0.02327861  0.65717769     0.03800
C1441       C  0.84601772  0.03812451  0.63022270     0.18000
C1442       C  0.86382973  0.03553557  0.60435206    -0.20000
C1443       C  0.81994010  0.05539434  0.62924792    -0.21300
C1444       C  0.80114960  0.05705704  0.65389266    -0.19800
C1445       C  0.80799514  0.04167912  0.68032166     0.19400
C1446       C  0.83516976  0.02544655  0.68277000     0.01500
C1447       C  0.84122157  0.01096448  0.71029905    -0.14600
C1448       C  0.81951922  0.00927490  0.73268191    -0.12300
C1449       C  0.79149113  0.02256533  0.72878898     0.01000
C1450       C  0.78675879  0.04049145  0.70342797    -0.24500
H1451       H  0.91866597  0.99087178  0.63235531     0.09000
H1452       H  0.88843393  0.99381990  0.67622469     0.12600
H1453       H  0.85747150  0.04726088  0.58411685     0.11300
H1454       H  0.81363994  0.06714410  0.60900984     0.12500
H1455       H  0.78063294  0.06977465  0.65194955     0.11500
H1456       H  0.86177911  0.99913328  0.71445864     0.08600
H1457       H  0.82356197  0.99488721  0.75173725     0.11900
H1458       H  0.76488989  0.05033195  0.69988565     0.13800
C1459       C  0.20429664  0.03248707  0.69767796    -0.01700
C1460       C  0.20490417  0.05145827  0.67289948    -0.09800
C1461       C  0.18079014  0.05311152  0.65333215    -0.18600
C1462       C  0.15530889  0.03525906  0.65776771     0.03800
C1463       C  0.15384463  0.01791107  0.68438739     0.18000
C1464       C  0.17828478  0.01677343  0.70419128    -0.20000
C1465       C  0.12872092  0.00047798  0.69014410    -0.21300
C1466       C  0.10565935  0.99869453  0.66938373    -0.19800
C1467       C  0.10731390  0.01398576  0.64218079     0.19400
C1468       C  0.13193495  0.03290615  0.63615115     0.01500
C1469       C  0.13267271  0.04756998  0.60818071    -0.14600
C1470       C  0.11050799  0.04269213  0.58683322    -0.12300
C1471       C  0.08651106  0.02380959  0.59268893     0.01000
C1472       C  0.08475724  0.00995059  0.62067629    -0.24500
H1473       H  0.22496239  0.06378621  0.66767818     0.09000
H1474       H  0.18333890  0.06763750  0.63435304     0.12600
H1475       H  0.17798017  0.00183961  0.72325359     0.11300
H1476       H  0.12724194  0.98749816  0.71050408     0.12500
H1477       H  0.08679433  0.98450375  0.67425946     0.11500
H1478       H  0.15028513  0.06253644  0.60184560     0.08600
H1479       H  0.11186857  0.05416737  0.56577549     0.11900
H1480       H  0.06608605  0.99545250  0.62547206     0.13800
C1481       C  0.07622251  0.02201670  0.39402441    -0.01700
C1482       C  0.06864517  0.01359603  0.36483172    -0.09800
C1483       C  0.08970216  0.01463700  0.34190818    -0.18600
C1484       C  0.11911898  0.02449890  0.34741053     0.03800
C1485       C  0.12626356  0.03405177  0.37685591     0.18000
C1486       C  0.10504665  0.03248536  0.39971061    -0.20000
C1487       C  0.15468842  0.04488099  0.38349813    -0.21300
C1488       C  0.17662892  0.04548541  0.36178903    -0.19800
C1489       C  0.17082652  0.03484878  0.33301680     0.19400
C1490       C  0.14192002  0.02464180  0.32510055     0.01500
C1491       C  0.13763790  0.01394069  0.29560244    -0.14600
C1492       C  0.16160915  0.01150459  0.27566250    -0.12300
C1493       C  0.19029966  0.01995727  0.28443831     0.01000
C1494       C  0.19436594  0.03279187  0.31265683    -0.24500
H1495       H  0.04643357  0.00566562  0.35971948     0.09000
H1496       H  0.08233306  0.00750612  0.32015786     0.12600
H1497       H  0.11104515  0.03958906  0.42205608     0.11300
H1498       H  0.16014160  0.05253380  0.40578752     0.12500
H1499       H  0.19860898  0.05346456  0.36782953     0.11500
H1500       H  0.11636066  0.00602028  0.28776984     0.08600
H1501       H  0.15806615  0.00121254  0.25410123     0.11900
H1502       H  0.21659337  0.03939920  0.31953728     0.13800
C1503       C  0.77922022  0.02388069  0.27782672    -0.01700
C1504       C  0.80945446  0.02703503  0.27113595    -0.09800
C1505       C  0.83051341  0.03130436  0.29402200    -0.18600
C1506       C  0.82184530  0.03191594  0.32448339     0.03800
C1507       C  0.79094577  0.02987088  0.33082673     0.18000
C1508       C  0.77011523  0.02655431  0.30761271    -0.20000
C1509       C  0.78104422  0.02920203  0.36041343    -0.21300
C1510       C  0.80123774  0.02929416  0.38403102    -0.19800
C1511       C  0.83189540  0.03055123  0.37876341     0.19400
C1512       C  0.84260330  0.03289269  0.34893338     0.01500
C1513       C  0.87362872  0.03549712  0.34496307    -0.14600
C1514       C  0.89315780  0.03395296  0.36928245    -0.12300
C1515       C  0.88275593  0.02961231  0.39864763     0.01000
C1516       C  0.85188579  0.02881969  0.40317324    -0.24500
H1517       H  0.81708279  0.02391069  0.24844625     0.09000
H1518       H  0.85353691  0.03227868  0.28733148     0.12600
H1519       H  0.74680013  0.02318059  0.31297226     0.11300
H1520       H  0.75747504  0.02760949  0.36534201     0.12500
H1521       H  0.79279727  0.02790134  0.40660995     0.11500
H1522       H  0.88349915  0.03858597  0.32328734     0.08600
H1523       H  0.91678345  0.03571529  0.36476988     0.11900
H1524       H  0.84336661  0.02615486  0.42561160     0.13800
C1525       C  0.07943734  0.91773000  0.48787212    -0.01700
C1526       C  0.10883624  0.92510268  0.48076931    -0.09800
C1527       C  0.13052231  0.90302160  0.47836860    -0.18600
C1528       C  0.12350936  0.87272611  0.48346329     0.03800
C1529       C  0.09340189  0.86523535  0.48943998     0.18000
C1530       C  0.07176894  0.88767116  0.49166071    -0.20000
C1531       C  0.08509814  0.83543165  0.49335979    -0.21300
C1532       C  0.10618384  0.81275324  0.49130790    -0.19800
C1533       C  0.13610807  0.81946201  0.48587843     0.19400
C1534       C  0.14527071  0.84961422  0.48259805     0.01500
C1535       C  0.17592162  0.85541119  0.47900183    -0.14600
C1536       C  0.19636188  0.83220456  0.47683983    -0.12300
C1537       C  0.18706306  0.80243361  0.47807231     0.01000
C1538       C  0.15696337  0.79619837  0.48340815    -0.24500
H1539       H  0.11520272  0.94807753  0.47695381     0.09000
H1540       H  0.15247429  0.91043743  0.47227292     0.12600
H1541       H  0.04896269  0.88163927  0.49673891     0.11300
H1542       H  0.06211950  0.82961406  0.49784768     0.12500
H1543       H  0.09907056  0.78984623  0.49411362     0.11500
H1544       H  0.18492234  0.87761627  0.47787389     0.08600
H1545       H  0.21957299  0.83778208  0.47347695     0.11900
H1546       H  0.14962669  0.77324702  0.48513847     0.13800
C1547       C  0.88661031  0.91821018  0.51151000    -0.01700
C1548       C  0.89640225  0.89349186  0.52805986    -0.09800
C1549       C  0.88006134  0.86732552  0.52850899    -0.18600
C1550       C  0.85335518  0.86496881  0.51204622     0.03800
C1551       C  0.84237141  0.89088654  0.49708898     0.18000
C1552       C  0.85901035  0.91732925  0.49707342    -0.20000
C1553       C  0.81541295  0.88989894  0.48140375    -0.21300
C1554       C  0.79929104  0.86357623  0.47992459    -0.19800
C1555       C  0.81023031  0.83749539  0.49338169     0.19400
C1556       C  0.83753410  0.83767546  0.50942470     0.01500
C1557       C  0.84841404  0.81027551  0.52107728    -0.14600
C1558       C  0.83292512  0.78375867  0.51659818    -0.12300
C1559       C  0.80596812  0.78386831  0.50098756     0.01000
C1560       C  0.79447455  0.81092620  0.48995952    -0.24500
H1561       H  0.91745162  0.89408651  0.54000765     0.09000
H1562       H  0.88920253  0.84928108  0.54159210     0.12600
H1563       H  0.85137397  0.93654645  0.48439791     0.11300
H1564       H  0.80687123  0.90952506  0.47002149     0.12500
H1565       H  0.77852031  0.86341582  0.46748557     0.11500
H1566       H  0.86926648  0.80834714  0.53291157     0.08600
H1567       H  0.84216685  0.76308737  0.52520489     0.11900
H1568       H  0.77374728  0.81120445  0.47741860     0.13800
C1569       C  0.88666002  0.11409481  0.52604326    -0.01700
C1570       C  0.85995121  0.10334560  0.53811730    -0.09800
C1571       C  0.84200234  0.12155641  0.55555678    -0.18600
C1572       C  0.84975896  0.15156458  0.56072774     0.03800
C1573       C  0.87709817  0.16224237  0.54894695     0.18000
C1574       C  0.89531018  0.14344960  0.53203301    -0.20000
C1575       C  0.88529839  0.19208075  0.55271858    -0.21300
C1576       C  0.86510748  0.21245205  0.56440856    -0.19800
C1577       C  0.83660668  0.20307692  0.57265837     0.19400
C1578       C  0.82962395  0.17222821  0.57370556     0.01500
C1579       C  0.80074461  0.16418652  0.58325342    -0.14600
C1580       C  0.77783856  0.18530457  0.58180657    -0.12300
C1581       C  0.78422029  0.21383842  0.57069184     0.01000
C1582       C  0.81351192  0.22409111  0.57450691    -0.24500
H1583       H  0.85305331  0.08047262  0.53468987     0.09000
H1584       H  0.82172335  0.11178965  0.56381516     0.12600
H1585       H  0.91617585  0.15185729  0.52333282     0.11300
H1586       H  0.90645798  0.20014556  0.54443210     0.12500
H1587       H  0.87078026  0.23592763  0.56427848     0.11500
H1588       H  0.79460143  0.14146756  0.58818566     0.08600
H1589       H  0.75503280  0.17754980  0.58290943     0.11900
H1590       H  0.81845492  0.24728372  0.56975050     0.13800
C1591       C  0.21871899  0.18975326  0.53053037    -0.01700
C1592       C  0.19202650  0.20587815  0.53411602    -0.09800
C1593       C  0.16494528  0.19111973  0.53718625    -0.18600
C1594       C  0.16387910  0.15971609  0.53656069     0.03800
C1595       C  0.19138634  0.14378881  0.53814785     0.18000
C1596       C  0.21852605  0.15892452  0.53535604    -0.20000
C1597       C  0.19158036  0.11267015  0.53960261    -0.21300
C1598       C  0.16529339  0.09694037  0.53586406    -0.19800
C1599       C  0.13845574  0.11208113  0.53026823     0.19400
C1600       C  0.13690054  0.14358774  0.53196644     0.01500
C1601       C  0.10891836  0.15749891  0.52642085    -0.14600
C1602       C  0.08385432  0.14072505  0.51823718    -0.12300
C1603       C  0.08606938  0.10977757  0.51498118     0.01000
C1604       C  0.11354365  0.09581444  0.52137867    -0.24500
H1605       H  0.19156031  0.22994092  0.53190198     0.09000
H1606       H  0.14516031  0.20480405  0.53819139     0.12600
H1607       H  0.23914503  0.14631788  0.53381560     0.11300
H1608       H  0.21235231  0.10040755  0.54181741     0.12500
H1609       H  0.16626314  0.07277287  0.53557052     0.11500
H1610       H  0.10590497  0.18133558  0.52742674     0.08600
H1611       H  0.06293844  0.15206601  0.51382653     0.11900
H1612       H  0.11602046  0.07192000  0.51872643     0.13800
C1613       C  0.96473764  0.73426428  0.20335355    -0.01700
C1614       C  0.94034944  0.71527701  0.19911918    -0.09800
C1615       C  0.94053437  0.69375685  0.17656314    -0.18600
C1616       C  0.96532227  0.69068130  0.15746129     0.03800
C1617       C  0.98787326  0.71281702  0.15902531     0.18000
C1618       C  0.98756343  0.73414320  0.18209132    -0.20000
C1619       C  0.01161363  0.71221577  0.13885248    -0.21300
C1620       C  0.01390700  0.68956158  0.11777040    -0.19800
C1621       C  0.99344103  0.66607647  0.11742419     0.19400
C1622       C  0.96911438  0.66597496  0.13765361     0.01500
C1623       C  0.95071307  0.64038973  0.13834193    -0.14600
C1624       C  0.95594009  0.61629571  0.11921465    -0.12300
C1625       C  0.97900905  0.61730600  0.09830216     0.01000
C1626       C  0.99758058  0.64231354  0.09743185    -0.24500
H1627       H  0.92260876  0.71477009  0.21544951     0.09000
H1628       H  0.92162032  0.67902135  0.17535758     0.12600
H1629       H  0.00671033  0.74846507  0.18541465     0.11300
H1630       H  0.02871038  0.72920327  0.13960004     0.12500
H1631       H  0.03254935  0.68974108  0.10246429     0.11500
H1632       H  0.93262078  0.63809896  0.15394466     0.08600
H1633       H  0.94131921  0.59716584  0.12013997     0.11900
H1634       H  0.01568863  0.64296924  0.08148109     0.13800
C1635       C  0.97082012  0.91940806  0.39806100    -0.01700
C1636       C  0.97807929  0.92492789  0.36808643    -0.09800
C1637       C  0.97407281  0.90296732  0.34612376    -0.18600
C1638       C  0.96281299  0.87443484  0.35344166     0.03800
C1639       C  0.95497114  0.86916777  0.38374970     0.18000
C1640       C  0.95878794  0.89151088  0.40546434    -0.20000
C1641       C  0.94435129  0.84120935  0.39253811    -0.21300
C1642       C  0.94328691  0.81771282  0.37240173    -0.19800
C1643       C  0.95217126  0.82172489  0.34276939     0.19400
C1644       C  0.96065579  0.85039580  0.33234703     0.01500
C1645       C  0.96783254  0.85318153  0.30163638    -0.14600
C1646       C  0.96958190  0.82795912  0.28301341    -0.12300
C1647       C  0.96408918  0.79939051  0.29443227     0.01000
C1648       C  0.95405709  0.79679034  0.32394751    -0.24500
H1649       H  0.98738271  0.94621787  0.36159654     0.09000
H1650       H  0.98075510  0.90864004  0.32374621     0.12600
H1651       H  0.95266111  0.88695302  0.42840040     0.11300
H1652       H  0.93799686  0.83711889  0.41548947     0.12500
H1653       H  0.93628084  0.79598645  0.38030831     0.11500
H1654       H  0.97306300  0.87443782  0.29169231     0.08600
H1655       H  0.97681682  0.83064471  0.26014609     0.11900
H1656       H  0.94889015  0.77487217  0.33277927     0.13800
C1657       C  0.97277372  0.41742171  0.90082070    -0.01700
C1658       C  0.96878522  0.42405205  0.87046479    -0.09800
C1659       C  0.96841375  0.40134704  0.84895836    -0.18600
C1660       C  0.97261484  0.37101077  0.85702583     0.03800
C1661       C  0.97556123  0.36428470  0.88788944     0.18000
C1662       C  0.97530338  0.38725015  0.90929066    -0.20000
C1663       C  0.97984110  0.33472918  0.89723459    -0.21300
C1664       C  0.98266993  0.31177693  0.87654559    -0.19800
C1665       C  0.98101030  0.31764947  0.84590602     0.19400
C1666       C  0.97525476  0.34726937  0.83567963     0.01500
C1667       C  0.97381059  0.35195547  0.80450277    -0.14600
C1668       C  0.97973382  0.32874988  0.78452894    -0.12300
C1669       C  0.98654769  0.29990734  0.79468058     0.01000
C1670       C  0.98642538  0.29430656  0.82542561    -0.24500
H1671       H  0.96622230  0.44697262  0.86317782     0.09000
H1672       H  0.96545264  0.40833209  0.82611951     0.12600
H1673       H  0.97812905  0.38152516  0.93264753     0.11300
H1674       H  0.98188753  0.32941065  0.92075727     0.12500
H1675       H  0.98689155  0.28933185  0.88458376     0.11500
H1676       H  0.96922315  0.37353011  0.79484729     0.08600
H1677       H  0.98012208  0.33363519  0.76084046     0.11900
H1678       H  0.99238246  0.27223203  0.83345262     0.13800
C1679       C  0.98413699  0.11518657  0.60115929    -0.01700
C1680       C  0.96785399  0.14195504  0.59971101    -0.09800
C1681       C  0.96492778  0.16033268  0.62498916    -0.18600
C1682       C  0.97850125  0.15259819  0.65262184     0.03800
C1683       C  0.99565147  0.12586978  0.65359295     0.18000
C1684       C  0.99816893  0.10761672  0.62822571    -0.20000
C1685       C  0.01033197  0.11738862  0.67991399    -0.21300
C1686       C  0.00939932  0.13543593  0.70507650    -0.19800
C1687       C  0.99340883  0.16228454  0.70478406     0.19400
C1688       C  0.97670341  0.17074061  0.67902329     0.01500
C1689       C  0.95995174  0.19751687  0.68065259    -0.14600
C1690       C  0.96273745  0.21670871  0.70524074    -0.12300
C1691       C  0.98209768  0.20983915  0.72895773     0.01000
C1692       C  0.99589447  0.18174939  0.72932022    -0.24500
H1693       H  0.95660577  0.14829393  0.57921109     0.09000
H1694       H  0.95200476  0.18049933  0.62226702     0.12600
H1695       H  0.01113944  0.08718203  0.62962759     0.11300
H1696       H  0.02326736  0.09692814  0.68084173     0.12500
H1697       H  0.02188240  0.12865715  0.72472069     0.11500
H1698       H  0.94577614  0.20490528  0.66258662     0.08600
H1699       H  0.95224223  0.23850198  0.70415440     0.11900
H1700       H  0.01131963  0.17645163  0.74728383     0.13800
C1701       C  0.98416689  0.61844684  0.90128208    -0.01700
C1702       C  0.00251692  0.64366483  0.90233491    -0.09800
C1703       C  0.00028423  0.66599539  0.88040230    -0.18600
C1704       C  0.97909291  0.66397638  0.85697355     0.03800
C1705       C  0.96012094  0.63854972  0.85666943     0.18000
C1706       C  0.96292829  0.61621487  0.87851246    -0.20000
C1707       C  0.93866578  0.63519065  0.83426107    -0.21300
C1708       C  0.93633331  0.65588604  0.81132993    -0.19800
C1709       C  0.95532926  0.68054410  0.81023615     0.19400
C1710       C  0.97653466  0.68554181  0.83329843     0.01500
C1711       C  0.99492501  0.71115080  0.83071019    -0.14600
C1712       C  0.99450108  0.72888194  0.80468200    -0.12300
C1713       C  0.97521357  0.72202319  0.78102376     0.01000
C1714       C  0.95447130  0.69904900  0.78500384    -0.24500
H1715       H  0.01897656  0.64587236  0.91993838     0.09000
H1716       H  0.01548916  0.68446963  0.88220799     0.12600
H1717       H  0.94825927  0.59704670  0.87798303     0.11300
H1718       H  0.92400634  0.61601997  0.83407858     0.12500
H1719       H  0.92007804  0.65208720  0.79380142     0.11500
H1720       H  0.01097134  0.71696930  0.84767922     0.08600
H1721       H  0.01090947  0.74633694  0.80210048     0.11900
H1722       H  0.93950609  0.69357191  0.76674680     0.13800
C1723       C  0.99401136  0.79388312  0.69591446    -0.01700
C1724       C  0.97594138  0.81820467  0.70373452    -0.09800
C1725       C  0.97593713  0.84450824  0.68644749    -0.18600
C1726       C  0.99396269  0.84712911  0.66059910     0.03800
C1727       C  0.01315745  0.82283123  0.65373145     0.18000
C1728       C  0.01323752  0.79698532  0.67144003    -0.20000
C1729       C  0.03128143  0.82374314  0.62838800    -0.21300
C1730       C  0.02948919  0.84749545  0.60856395    -0.19800
C1731       C  0.01006845  0.87130814  0.61394276     0.19400
C1732       C  0.99289520  0.87220708  0.64059869     0.01500
C1733       C  0.97514433  0.89790525  0.64560012    -0.14600
C1734       C  0.97360332  0.92094936  0.62440512    -0.12300
C1735       C  0.98910838  0.91877113  0.59738408     0.01000
C1736       C  0.00757005  0.89408518  0.59253584    -0.24500
H1737       H  0.96071347  0.81636587  0.72232224     0.09000
H1738       H  0.96075272  0.86194946  0.69310870     0.12600
H1739       H  0.02753685  0.77844776  0.66524708     0.11300
H1740       H  0.04621483  0.80540104  0.62327049     0.12500
H1741       H  0.04310234  0.84701988  0.58863342     0.11500
H1742       H  0.96226624  0.90075730  0.66566005     0.08600
H1743       H  0.95962538  0.94020070  0.62881844     0.11900
H1744       H  0.02030830  0.89274947  0.57204478     0.13800
C1745       C  0.11534068  0.56921547  0.47591662    -0.01700
C1746       C  0.14423620  0.56826915  0.48796712    -0.09800
C1747       C  0.16425450  0.59190918  0.48341434    -0.18600
C1748       C  0.15605372  0.61731238  0.46632519     0.03800
C1749       C  0.12700426  0.61762561  0.45342205     0.18000
C1750       C  0.10713652  0.59395280  0.45844692    -0.20000
C1751       C  0.11758759  0.64188088  0.43603693    -0.21300
C1752       C  0.13575175  0.66661898  0.43242170    -0.19800
C1753       C  0.16388233  0.66772405  0.44597414     0.19400
C1754       C  0.17497347  0.64286065  0.46239980     0.01500
C1755       C  0.20392240  0.64537681  0.47509223    -0.14600
C1756       C  0.21999012  0.67226805  0.47351800    -0.12300
C1757       C  0.20780706  0.69722007  0.45904881     0.01000
C1758       C  0.18028752  0.69426502  0.44438648    -0.24500
H1759       H  0.15122935  0.54938072  0.50141228     0.09000
H1760       H  0.18588417  0.58986647  0.49379233     0.12600
H1761       H  0.08507955  0.59474723  0.44855552     0.11300
H1762       H  0.09564838  0.64207398  0.42580081     0.12500
H1763       H  0.12735758  0.68541538  0.41960761     0.11500
H1764       H  0.21418396  0.62729839  0.48731334     0.08600
H1765       H  0.24112854  0.67405538  0.48511447     0.11900
H1766       H  0.17078825  0.71344482  0.43293145     0.13800
C1767       C  0.92195974  0.36318062  0.47692397    -0.01700
C1768       C  0.92764000  0.33259616  0.47299793    -0.09800
C1769       C  0.90408360  0.31201257  0.47055519    -0.18600
C1770       C  0.87384610  0.32132062  0.47226076     0.03800
C1771       C  0.86831009  0.35228298  0.47623978     0.18000
C1772       C  0.89201340  0.37260262  0.47823718    -0.20000
C1773       C  0.83906520  0.36294229  0.47888238    -0.21300
C1774       C  0.81508300  0.34344739  0.47874374    -0.19800
C1775       C  0.81957187  0.31274287  0.47549523     0.19400
C1776       C  0.84890040  0.30119147  0.47134353     0.01500
C1777       C  0.85184144  0.26994330  0.46777250    -0.14600
C1778       C  0.82717879  0.25099057  0.47101447    -0.12300
C1779       C  0.79873867  0.26243813  0.47740571     0.01000
C1780       C  0.79501185  0.29343376  0.47838023    -0.24500
H1781       H  0.95037076  0.32449222  0.47175444     0.09000
H1782       H  0.91017460  0.28889510  0.46776210     0.12600
H1783       H  0.88688441  0.39605088  0.48129368     0.11300
H1784       H  0.83471833  0.38655259  0.48186659     0.12500
H1785       H  0.79284787  0.35243723  0.48183901     0.11500
H1786       H  0.87315570  0.25945221  0.46395354     0.08600
H1787       H  0.83086335  0.22708353  0.47115487     0.11900
H1788       H  0.77334698  0.30245489  0.48425416     0.13800
C1789       C  0.12571100  0.37145896  0.47838991    -0.01700
C1790       C  0.12521850  0.34721959  0.45871783    -0.09800
C1791       C  0.15087083  0.32979538  0.45424803    -0.18600
C1792       C  0.17757323  0.33554604  0.47022473     0.03800
C1793       C  0.17759393  0.35978735  0.49060906     0.18000
C1794       C  0.15215917  0.37780026  0.49387312    -0.20000
C1795       C  0.20259597  0.36521698  0.50855599    -0.21300
C1796       C  0.22662165  0.34551118  0.50860571    -0.19800
C1797       C  0.22696214  0.32090825  0.48943342     0.19400
C1798       C  0.20347476  0.31685839  0.46844518     0.01500
C1799       C  0.20632660  0.29325984  0.44777458    -0.14600
C1800       C  0.22916830  0.27207018  0.45076843    -0.12300
C1801       C  0.24969142  0.27372507  0.47435501     0.01000
C1802       C  0.24944105  0.29909866  0.49258422    -0.24500
H1803       H  0.10517012  0.34220927  0.44616621     0.09000
H1804       H  0.14891448  0.31138631  0.43891374     0.12600
H1805       H  0.15268340  0.39649953  0.50919999     0.11300
H1806       H  0.20283675  0.38384911  0.52393861     0.12500
H1807       H  0.24473882  0.34915487  0.52422574     0.11500
H1808       H  0.19042578  0.28990611  0.42998884     0.08600
H1809       H  0.22868603  0.25246328  0.43666874     0.11900
H1810       H  0.26492699  0.30032733  0.51118622     0.13800
C1811       C  0.91881703  0.56176817  0.47870790    -0.01700
C1812       C  0.92476671  0.58868158  0.46400968    -0.09800
C1813       C  0.90339072  0.61135552  0.46242338    -0.18600
C1814       C  0.87506761  0.60810925  0.47584054     0.03800
C1815       C  0.86907603  0.58085063  0.49090638     0.18000
C1816       C  0.89078341  0.55792576  0.49200501    -0.20000
C1817       C  0.84153645  0.57679961  0.50497382    -0.21300
C1818       C  0.81989134  0.59929096  0.50461687    -0.19800
C1819       C  0.82510886  0.62653935  0.49016754     0.19400
C1820       C  0.85273679  0.63112279  0.47529422     0.01500
C1821       C  0.85706819  0.65883568  0.46096717    -0.14600
C1822       C  0.83576126  0.68147875  0.46264987    -0.12300
C1823       C  0.80894557  0.67751685  0.47803114     0.01000
C1824       C  0.80335283  0.64962822  0.49123966    -0.24500
H1825       H  0.94613661  0.59220736  0.45340701     0.09000
H1826       H  0.90991559  0.63124683  0.45068899     0.12600
H1827       H  0.88607007  0.53731250  0.50373871     0.11300
H1828       H  0.83677241  0.55613516  0.51657415     0.12500
H1829       H  0.79900505  0.59543967  0.51601677     0.11500
H1830       H  0.87699400  0.66407739  0.44875982     0.08600
H1831       H  0.84064670  0.70277531  0.45231725     0.11900
H1832       H  0.78287992  0.64641479  0.50357000     0.13800
C1833       C  0.23593342  0.45612935  0.27686812    -0.01700
C1834       C  0.21198103  0.43655196  0.27292818    -0.09800
C1835       C  0.19067445  0.43276225  0.29525707    -0.18600
C1836       C  0.19290847  0.44843907  0.32247453     0.03800
C1837       C  0.21944119  0.46493163  0.32785643     0.18000
C1838       C  0.24043074  0.46906785  0.30490251    -0.20000
C1839       C  0.22382998  0.47884207  0.35542334    -0.21300
C1840       C  0.20184594  0.47796547  0.37721332    -0.19800
C1841       C  0.17430875  0.46451691  0.37141718     0.19400
C1842       C  0.16933806  0.44955549  0.34393456     0.01500
C1843       C  0.14039543  0.43825027  0.33837894    -0.14600
C1844       C  0.11729510  0.44238613  0.35898260    -0.12300
C1845       C  0.12241084  0.45694410  0.38619904     0.01000
C1846       C  0.15128581  0.46722213  0.39246519    -0.24500
H1847       H  0.20803690  0.42652970  0.25128230     0.09000
H1848       H  0.17210504  0.41840618  0.29019601     0.12600
H1849       H  0.25871880  0.48452130  0.30797589     0.11300
H1850       H  0.24417254  0.49099896  0.35995606     0.12500
H1851       H  0.20583587  0.48928620  0.39818856     0.11500
H1852       H  0.13465916  0.42721116  0.31778892     0.08600
H1853       H  0.09534190  0.43405326  0.35360659     0.11900
H1854       H  0.15557619  0.47863633  0.41334537     0.13800
C1855       C  0.92121445  0.46017290  0.38275805    -0.01700
C1856       C  0.92837250  0.45860628  0.35239378    -0.09800
C1857       C  0.90603444  0.45876804  0.33054457    -0.18600
C1858       C  0.87552085  0.46060151  0.33833096     0.03800
C1859       C  0.86829367  0.46115630  0.36915806     0.18000
C1860       C  0.89097014  0.46092948  0.39088739    -0.20000
C1861       C  0.83846529  0.46250827  0.37817320    -0.21300
C1862       C  0.81558697  0.46432114  0.35720913    -0.19800
C1863       C  0.82193544  0.46507179  0.32668199     0.19400
C1864       C  0.85198610  0.46275467  0.31674449     0.01500
C1865       C  0.85720135  0.46407723  0.28567722    -0.14600
C1866       C  0.83389434  0.46957048  0.26566311    -0.12300
C1867       C  0.80460470  0.47308455  0.27570942     0.01000
C1868       C  0.79855120  0.46981040  0.30610470    -0.24500
H1869       H  0.95141694  0.45755425  0.34535632     0.09000
H1870       H  0.91343617  0.45769232  0.30774092     0.12600
H1871       H  0.88491038  0.46184776  0.41426306     0.11300
H1872       H  0.83279320  0.46268769  0.40165844     0.12500
H1873       H  0.79279193  0.46597144  0.36496890     0.11500
H1874       H  0.87916825  0.46234346  0.27621360     0.08600
H1875       H  0.83898116  0.47258424  0.24223089     0.11900
H1876       H  0.77596696  0.47325652  0.31395719     0.13800
C1877       C  0.11850690  0.46412951  0.58282190    -0.01700
C1878       C  0.14003906  0.48650930  0.58299959    -0.09800
C1879       C  0.16258163  0.48660868  0.60445180    -0.18600
C1880       C  0.16454976  0.46381476  0.62623763     0.03800
C1881       C  0.14271034  0.44083798  0.62563410     0.18000
C1882       C  0.11991643  0.44121497  0.60401575    -0.20000
C1883       C  0.14341339  0.41801723  0.64697169    -0.21300
C1884       C  0.16454639  0.41822693  0.66975306    -0.19800
C1885       C  0.18581810  0.44094790  0.67141593     0.19400
C1886       C  0.18675831  0.46355886  0.64916761     0.01500
C1887       C  0.20923719  0.48553972  0.65154879    -0.14600
C1888       C  0.22800063  0.48663829  0.67646275    -0.12300
C1889       C  0.22531776  0.46568865  0.69935142     0.01000
C1890       C  0.20506537  0.44221270  0.69617002    -0.24500
H1891       H  0.13911297  0.50434539  0.56665529     0.09000
H1892       H  0.17788040  0.50502615  0.60353825     0.12600
H1893       H  0.10334318  0.42366115  0.60356200     0.11300
H1894       H  0.12700130  0.40033671  0.64652133     0.12500
H1895       H  0.16387356  0.40081456  0.68654436     0.11500
H1896       H  0.21207661  0.50295451  0.63523378     0.08600
H1897       H  0.24305368  0.50531552  0.67896840     0.11900
H1898       H  0.20251427  0.42638297  0.71431369     0.13800
C1899       C  0.91884461  0.45793047  0.58043554    -0.01700
C1900       C  0.92608290  0.44889864  0.60954405    -0.09800
C1901       C  0.90426098  0.44682515  0.63162421    -0.18600
C1902       C  0.87414415  0.45425001  0.62559436     0.03800
C1903       C  0.86665918  0.46303857  0.59598000     0.18000
C1904       C  0.88884844  0.46459655  0.57376666    -0.20000
C1905       C  0.83715662  0.47071931  0.58886113    -0.21300
C1906       C  0.81505026  0.47051331  0.61062844    -0.19800
C1907       C  0.82181373  0.46276614  0.64018496     0.19400
C1908       C  0.85141399  0.45414280  0.64803540     0.01500
C1909       C  0.85721698  0.44712597  0.67831026    -0.14600
C1910       C  0.83519632  0.45053619  0.70001702    -0.12300
C1911       C  0.80646857  0.46023490  0.69238497     0.01000
C1912       C  0.79958809  0.46533205  0.66228788    -0.24500
H1913       H  0.94885158  0.44315921  0.61536186     0.09000
H1914       H  0.91180459  0.43954109  0.65329253     0.12600
H1915       H  0.88278503  0.47158556  0.55136985     0.11300
H1916       H  0.83120548  0.47741986  0.56635895     0.12500
H1917       H  0.79261509  0.47718563  0.60443203     0.11500
H1918       H  0.87890179  0.44030065  0.68621005     0.08600
H1919       H  0.84112346  0.44717820  0.72325503     0.11900
H1920       H  0.77760002  0.47363757  0.65640289     0.13800
C1921       C  0.99842811  0.69554278  0.29752775    -0.01700
C1922       C  0.01333534  0.69857981  0.32474855    -0.09800
C1923       C  0.02024758  0.67350546  0.34194252    -0.18600
C1924       C  0.01171299  0.64454535  0.33263890     0.03800
C1925       C  0.99732088  0.64160509  0.30455304     0.18000
C1926       C  0.99114909  0.66692549  0.28723465    -0.20000
C1927       C  0.98829613  0.61354483  0.29430885    -0.21300
C1928       C  0.99220883  0.58829874  0.31196986    -0.19800
C1929       C  0.00534696  0.59052523  0.34022394     0.19400
C1930       C  0.01587294  0.61861264  0.35065263     0.01500
C1931       C  0.02916670  0.61974520  0.37915994    -0.14600
C1932       C  0.03047386  0.59456182  0.39713740    -0.12300
C1933       C  0.01918243  0.56714285  0.38733816     0.01000
C1934       C  0.00726448  0.56503056  0.35852780    -0.24500
H1935       H  0.01951774  0.72045365  0.33287578     0.09000
H1936       H  0.03166407  0.67771632  0.36267208     0.12600
H1937       H  0.97948271  0.66437215  0.26615855     0.11300
H1938       H  0.97748919  0.61121192  0.27276893     0.12500
H1939       H  0.98435712  0.56700441  0.30372647     0.11500
H1940       H  0.03827619  0.63982900  0.38858132     0.08600
H1941       H  0.04014432  0.59675398  0.41918541     0.11900
H1942       H  0.99843477  0.54390722  0.35082470     0.13800
C1943       C  0.03680477  0.36928514  0.58405467    -0.01700
C1944       C  0.03882820  0.33826650  0.58102325    -0.09800
C1945       C  0.04763348  0.32050835  0.60531445    -0.18600
C1946       C  0.05457999  0.33346805  0.63334373     0.03800
C1947       C  0.05322459  0.36495217  0.63583927     0.18000
C1948       C  0.04473862  0.38229654  0.61144336    -0.20000
C1949       C  0.05903529  0.37907477  0.66306554    -0.21300
C1950       C  0.06295620  0.36236383  0.68882093    -0.19800
C1951       C  0.06210920  0.33125534  0.68756255     0.19400
C1952       C  0.06037967  0.31639611  0.65958375     0.01500
C1953       C  0.06233386  0.28500237  0.65953840    -0.14600
C1954       C  0.05972261  0.26909546  0.68614321    -0.12300
C1955       C  0.05484053  0.28419943  0.71313206     0.01000
C1956       C  0.05978938  0.31499728  0.71413856    -0.24500
H1957       H  0.03329573  0.32769626  0.56001990     0.09000
H1958       H  0.04784124  0.29671521  0.60182382     0.12600
H1959       H  0.04402244  0.40632156  0.61415521     0.11300
H1960       H  0.05867628  0.40319525  0.66479100     0.12500
H1961       H  0.06512676  0.37382838  0.70998804     0.11500
H1962       H  0.06389774  0.27224068  0.63922165     0.08600
H1963       H  0.05788459  0.24503827  0.68496131     0.11900
H1964       H  0.05764269  0.32685139  0.73510370     0.13800
C1965       C  0.01197768  0.56382682  0.58182187    -0.01700
C1966       C  0.01580226  0.55846125  0.61241568    -0.09800
C1967       C  0.01260280  0.58163393  0.63307453    -0.18600
C1968       C  0.00530619  0.61097826  0.62364565     0.03800
C1969       C  0.00069423  0.61593468  0.59266216     0.18000
C1970       C  0.00405281  0.59260315  0.57230726    -0.20000
C1971       C  0.99280078  0.64421177  0.58195512    -0.21300
C1972       C  0.98950057  0.66797930  0.60139178    -0.19800
C1973       C  0.99420654  0.66408293  0.63197925     0.19400
C1974       C  0.00227456  0.63558501  0.64364703     0.01500
C1975       C  0.00704860  0.63311797  0.67474330    -0.14600
C1976       C  0.00347881  0.65777976  0.69337469    -0.12300
C1977       C  0.99542898  0.68571288  0.68166821     0.01000
C1978       C  0.99090679  0.68868478  0.65094331    -0.24500
H1979       H  0.02155051  0.53635590  0.62043050     0.09000
H1980       H  0.01593801  0.57587147  0.65620268     0.12600
H1981       H  0.00033181  0.59701707  0.54878489     0.11300
H1982       H  0.98916660  0.64799586  0.55832100     0.12500
H1983       H  0.98335631  0.68962009  0.59239803     0.11500
H1984       H  0.01363727  0.61250949  0.68533028     0.08600
H1985       H  0.00736578  0.65499799  0.71709152     0.11900
H1986       H  0.98450034  0.71018197  0.64174498     0.13800
C1987       C  0.98802330  0.29728364  0.20252222    -0.01700
C1988       C  0.97576734  0.29076089  0.17456818    -0.09800
C1989       C  0.97028879  0.31372166  0.15382268    -0.18600
C1990       C  0.97716139  0.34387530  0.16058535     0.03800
C1991       C  0.98658645  0.35042997  0.19011760     0.18000
C1992       C  0.99183490  0.32728055  0.21061066    -0.20000
C1993       C  0.99226859  0.37990988  0.19863466    -0.21300
C1994       C  0.98970770  0.40310046  0.17813876    -0.19800
C1995       C  0.98215056  0.39734733  0.14839477     0.19400
C1996       C  0.97589677  0.36763253  0.13911085     0.01500
C1997       C  0.96999411  0.36288890  0.10851907    -0.14600
C1998       C  0.97013227  0.38658135  0.08815628    -0.12300
C1999       C  0.97585031  0.41599705  0.09740498     0.01000
C2000       C  0.98161981  0.42111207  0.12774808    -0.24500
H2001       H  0.97245709  0.26778268  0.16795180     0.09000
H2002       H  0.96158373  0.30715543  0.13237399     0.12600
H2003       H  0.00094158  0.33249288  0.23245126     0.11300
H2004       H  0.99922775  0.38502795  0.22123521     0.12500
H2005       H  0.99454865  0.42561680  0.18542023     0.11500
H2006       H  0.96590689  0.34097898  0.09954466     0.08600
H2007       H  0.96580956  0.38166941  0.06489026     0.11900
H2008       H  0.98652135  0.44354413  0.13526295     0.13800
C2009       C  0.99111040  0.20485995  0.26518507    -0.01700
C2010       C  0.96817890  0.21122811  0.28531315    -0.09800
C2011       C  0.96315790  0.19270312  0.31005571    -0.18600
C2012       C  0.98122644  0.16725114  0.31546773     0.03800
C2013       C  0.00280066  0.15970400  0.29348570     0.18000
C2014       C  0.00719086  0.17821335  0.26857778    -0.20000
C2015       C  0.02140796  0.13489678  0.29747752    -0.21300
C2016       C  0.01979662  0.11786630  0.32329852    -0.19800
C2017       C  0.99961365  0.12524769  0.34586110     0.19400
C2018       C  0.97973094  0.14978257  0.34232782     0.01500
C2019       C  0.96000165  0.15608663  0.36624130    -0.14600
C2020       C  0.96049056  0.13900695  0.39264687    -0.12300
C2021       C  0.98029765  0.11496062  0.39578423     0.01000
C2022       C  0.99950780  0.10819768  0.37211225    -0.24500
H2023       H  0.95596957  0.23206085  0.28352286     0.09000
H2024       H  0.94608380  0.19972545  0.32539336     0.12600
H2025       H  0.02530685  0.17345714  0.25330741     0.11300
H2026       H  0.03788422  0.12905240  0.28082911     0.12500
H2027       H  0.03489954  0.09908631  0.32590019     0.11500
H2028       H  0.94401198  0.17407563  0.36516532     0.08600
H2029       H  0.94482115  0.14408085  0.41026059     0.11900
H2030       H  0.01466224  0.08936577  0.37422881     0.13800
C2031       C  0.07096953  0.27482132  0.26685094    -0.01700
C2032       C  0.07710095  0.26204379  0.29482879    -0.09800
C2033       C  0.08042767  0.28043067  0.31971170    -0.18600
C2034       C  0.07748987  0.31165950  0.31653903     0.03800
C2035       C  0.07963224  0.32383577  0.28734057     0.18000
C2036       C  0.07796180  0.30497627  0.26255299    -0.20000
C2037       C  0.07907941  0.35471286  0.28298303    -0.21300
C2038       C  0.07258817  0.37357217  0.30661303    -0.19800
C2039       C  0.06578498  0.36175918  0.33469653     0.19400
C2040       C  0.06922981  0.33078184  0.34047019     0.01500
C2041       C  0.06116841  0.31994186  0.36897869    -0.14600
C2042       C  0.04923544  0.33903935  0.39050187    -0.12300
C2043       C  0.04503343  0.36943111  0.38430347     0.01000
C2044       C  0.05393352  0.38058996  0.35647629    -0.24500
H2045       H  0.07447707  0.23829460  0.29840682     0.09000
H2046       H  0.08232839  0.26971500  0.34121237     0.12600
H2047       H  0.07573928  0.31474242  0.24048270     0.11300
H2048       H  0.08152270  0.36417198  0.26085616     0.12500
H2049       H  0.07072804  0.39732421  0.30236669     0.11500
H2050       H  0.06283978  0.29666560  0.37488996     0.08600
H2051       H  0.04307476  0.32988338  0.41197811     0.11900
H2052       H  0.05111424  0.40406990  0.35136846     0.13800
loop_ 
_geom_bond_atom_site_label_1 
_geom_bond_atom_site_label_2 
_geom_bond_distance 
_geom_bond_site_symmetry_2 
_ccdc_geom_bond_type 
C1            N2   1.369   1_455  A
C1            N6   1.354       .  A
C1         C1987   1.481   1_455  S
N2            C3   1.371   1_655  A
C3            N4   1.357       .  A
C3         C2009   1.476   1_455  S
N4            C5   1.351       .  A
C5            N6   1.352       .  A
C5         C2031   1.480       .  S
O7          Zr43   2.420       .  S
O7           C18   1.291       .  A
O8          Zr42   2.399       .  S
O8           C19   1.287       .  A
O9          Zr15   2.469       .  S
O9           C20   1.298       .  A
O10         Zr15   2.485   1_655  S
O10          C21   1.301       .  A
O11         Zr45   2.432       .  S
O11          C21   1.292       .  A
O12         Zr44   2.425       .  S
O12          C20   1.290       .  A
O13         Zr15   2.462       .  S
O13          C19   1.296       .  A
O14         Zr15   2.441       .  S
O14          C18   1.293       .  A
Zr15         O16   2.354   1_455  S
Zr15         O17   2.344       .  S
Zr15         O25   2.355   1_455  S
Zr15         O23   2.348       .  S
O16         Zr42   2.347   1_655  S
O16         Zr45   2.347       .  S
O17         Zr43   2.332       .  S
O17         Zr44   2.333       .  S
C18        C2043   1.480       .  S
C19        C1943   1.480       .  S
C20        C1789   1.482       .  S
C21        C1767   1.503       .  S
H22          O23   0.965       .  S
O23         Zr42   2.344       .  S
O23         Zr44   2.344       .  S
H24          O25   0.963       .  S
O25         Zr43   2.354   1_655  S
O25         Zr45   2.354       .  S
O26         Zr42   2.444       .  S
O26          C49   1.293       .  A
O27         Zr43   2.463       .  S
O27          C50   1.297       .  A
O28         Zr44   2.427       .  S
O28          C51   1.290       .  A
O29         Zr45   2.443       .  S
O29          C52   1.293       .  A
O30         Zr45   2.428       .  S
O30          C53   1.291       .  A
O31         Zr44   2.437       .  S
O31          C54   1.292       .  A
O32         Zr46   2.445       .  S
O32          C55   1.294       .  A
O33         Zr46   2.436   1_655  S
O33          C56   1.293       .  A
O34         Zr44   2.470       .  S
O34          C55   1.297       .  A
O35         Zr45   2.457       .  S
O35          C56   1.295       .  A
O36         Zr42   2.447       .  S
O36          C51   1.293       .  A
O37         Zr43   2.467       .  S
O37          C54   1.298       .  A
O38         Zr43   2.456   1_655  S
O38          C53   1.296       .  A
O39         Zr42   2.459   1_655  S
O39          C52   1.297       .  A
O40         Zr46   2.423       .  S
O40          C49   1.291       .  A
O41         Zr46   2.397       .  S
O41          C50   1.286       .  A
Zr42         O48   2.347       .  S
Zr42         O60   2.328   1_455  S
Zr43         O47   2.337   1_455  S
Zr43         O58   2.342       .  S
Zr44         O48   2.340       .  S
Zr44         O58   2.332       .  S
Zr45         O47   2.339       .  S
Zr45         O60   2.336       .  S
Zr46         O47   2.338   1_455  S
Zr46         O48   2.332       .  S
Zr46         O60   2.335   1_455  S
Zr46         O58   2.341       .  S
C49        C1965   1.481       .  S
C50        C1933   1.475       .  S
C51        C1877   1.466       .  S
C52        C1899   1.494       .  S
C53        C1855   1.489       .  S
C54        C1845   1.491       .  S
C55        C1745   1.493       .  S
C56        C1811   1.486       .  S
H57          O58   0.967       .  S
H59          O60   0.967       .  S
C61          N62   1.354       .  A
C61          N66   1.374       .  A
C61        C1713   1.484       .  S
N62          C63   1.346       .  A
C63          N64   1.352       .  A
C63        C1977   1.475       .  S
N64          C65   1.361       .  A
C65          N66   1.376       .  A
C65        C1723   1.493       .  S
C67          N68   1.358   1_655  A
C67          N72   1.372       .  A
C67        C1669   1.483       .  S
N68          C69   1.355       .  A
C69          N70   1.349       .  A
C69        C1955   1.478       .  S
N70          C71   1.351   1_455  A
C71          N72   1.371       .  A
C71        C1691   1.477       .  S
C73          N74   1.370       .  A
C73          N78   1.350       .  A
C73        C1613   1.471       .  S
N74          C75   1.373       .  A
C75          N76   1.363       .  A
C75        C1647   1.490       .  S
N76          C77   1.354       .  A
C77          N78   1.346       .  A
C77        C1921   1.473       .  S
O79        Zr115   2.412       .  S
O79          C90   1.288       .  A
O80        Zr114   2.437       .  S
O80          C91   1.292       .  A
O81         Zr87   2.440       .  S
O81          C92   1.294       .  A
O82         Zr87   2.486   1_455  S
O82          C93   1.301       .  A
O83        Zr117   2.383       .  S
O83          C93   1.284       .  A
O84        Zr116   2.403       .  S
O84          C92   1.288       .  A
O85         Zr87   2.478       .  S
O85          C91   1.300       .  A
O86         Zr87   2.494       .  S
O86          C90   1.303       .  A
Zr87         O88   2.340   1_655  S
Zr87         O89   2.358       .  S
Zr87         O97   2.353   1_655  S
Zr87         O95   2.354       .  S
O88        Zr114   2.328   1_455  S
O88        Zr117   2.334       .  S
O89        Zr115   2.348       .  S
O89        Zr116   2.353       .  S
C90        C2021   1.485       .  S
C91        C1679   1.494       .  S
C92        C1569   1.470       .  S
C93        C1603   1.487       .  S
H94          O95   0.964       .  S
O95        Zr114   2.330       .  S
O95        Zr116   2.353       .  S
H96          O97   0.965       .  S
O97        Zr115   2.348   1_455  S
O97        Zr117   2.342       .  S
O98        Zr114   2.430   1_565  S
O98         C121   1.290       .  A
O99        Zr115   2.456   1_565  S
O99         C122   1.295       .  A
O100       Zr116   2.488       .  S
O100        C123   1.301       .  A
O101       Zr117   2.448       .  S
O101        C124   1.294       .  A
O102       Zr117   2.445       .  S
O102        C125   1.294       .  A
O103       Zr116   2.503       .  S
O103        C126   1.305       .  A
O104       Zr118   2.393       .  S
O104        C127   1.285       .  A
O105       Zr118   2.412   1_455  S
O105        C128   1.288       .  A
O106       Zr116   2.452   1_565  S
O106        C127   1.294       .  A
O107       Zr117   2.426   1_565  S
O107        C128   1.291       .  A
O108       Zr114   2.430       .  S
O108        C123   1.291       .  A
O109       Zr115   2.400       .  S
O109        C126   1.285       .  A
O110       Zr115   2.429   1_455  S
O110        C125   1.290       .  A
O111       Zr114   2.440   1_455  S
O111        C124   1.291       .  A
O112       Zr118   2.453       .  S
O112        C121   1.296       .  A
O113       Zr118   2.457       .  S
O113        C122   1.296       .  A
Zr114       O120   2.338   1_545  S
Zr114       O132   2.338   1_645  S
Zr115       O119   2.325   1_645  S
Zr115       O130   2.342   1_545  S
Zr116       O120   2.343   1_545  S
Zr116       O130   2.341   1_545  S
Zr117       O119   2.328   1_545  S
Zr117       O132   2.332   1_545  S
Zr118       O119   2.332   1_655  S
Zr118       O120   2.333       .  S
Zr118       O132   2.339   1_655  S
Zr118       O130   2.345       .  S
C121       C1735   1.478       .  S
C122       C1635   1.496       .  S
C123       C1437   1.494       .  S
C124       C1471   1.481       .  S
C125       C1481   1.483       .  S
C126       C1515   1.499       .  S
C127       C1547   1.464       .  S
C128       C1525   1.471       .  S
H129        O130   0.965       .  S
H131        O132   0.966       .  S
C133        N134   1.349       .  A
C133        N138   1.368       .  A
C133       C1801   1.471       .  S
N134        C135   1.348       .  A
C135        N136   1.358       .  A
C135       C1591   1.480       .  S
N136        C137   1.362       .  A
C137        N138   1.370       .  A
C137       C1427   1.485       .  S
C139        N140   1.373       .  A
C139        N144   1.357       .  A
C139       C1393   1.485       .  S
N140        C141   1.372       .  A
C141        N142   1.353       .  A
C141       C1779   1.480       .  S
N142        C143   1.352       .  A
C143        N144   1.353       .  A
C143       C1581   1.485       .  S
C145        N146   1.346       .  A
C145        N150   1.373       .  A
C145       C1371   1.476       .  S
N146        C147   1.341       .  A
C147        N148   1.353       .  A
C147       C1559   1.470       .  S
N148        C149   1.363       .  A
C149        N150   1.377       .  A
C149       C1823   1.490       .  S
C151        N152   1.359       .  A
C151        N156   1.375       .  A
C151       C1757   1.486       .  S
N152        C153   1.351       .  A
C153        N154   1.347       .  A
C153       C1537   1.475       .  S
N154        C155   1.352       .  A
C155        N156   1.372       .  A
C155       C1349   1.484       .  S
C157        N158   1.356   1_545  A
C157        N162   1.371       .  A
C157       C1317   1.474       .  S
N158        C159   1.352       .  A
C159        N160   1.349       .  A
C159       C1327   1.476       .  S
N160        C161   1.352   1_565  A
C161        N162   1.369       .  A
C161       C1503   1.476       .  S
O163       Zr199   2.451       .  S
O163        C174   1.294       .  A
O164       Zr198   2.436       .  S
O164        C175   1.290       .  A
O165       Zr171   2.414       .  S
O165        C176   1.289       .  A
O166       Zr171   2.420       .  S
O166        C177   1.291       .  A
O167       Zr201   2.425       .  S
O167        C177   1.291       .  A
O168       Zr200   2.443       .  S
O168        C176   1.293       .  A
O169       Zr171   2.456       .  S
O169        C175   1.296       .  A
O170       Zr171   2.447   1_545  S
O170        C174   1.295       .  A
Zr171       O172   2.334       .  S
Zr171       O173   2.332       .  S
Zr171       O181   2.342       .  S
Zr171       O179   2.327       .  S
O172       Zr198   2.329       .  S
O172       Zr201   2.343       .  S
O173       Zr199   2.331   1_565  S
O173       Zr200   2.331       .  S
C174       C1415   1.493       .  S
C175       C1361   1.485       .  S
C176       C1239   1.477       .  S
C177       C1295   1.470       .  S
H178        O179   0.965       .  S
O179       Zr198   2.336       .  S
O179       Zr200   2.337       .  S
H180        O181   0.966   1_545  S
O181       Zr199   2.334   1_565  S
O181       Zr201   2.341       .  S
O182       Zr198   2.427       .  S
O182        C205   1.290       .  A
O183       Zr199   2.417       .  S
O183        C206   1.289       .  A
O184       Zr200   2.454       .  S
O184        C207   1.295       .  A
O185       Zr201   2.459       .  S
O185        C208   1.297       .  A
O186       Zr201   2.470   1_545  S
O186        C209   1.299       .  A
O187       Zr200   2.466   1_545  S
O187        C210   1.297       .  A
O188       Zr202   2.440       .  S
O188        C211   1.293       .  A
O189       Zr202   2.463       .  S
O189        C212   1.297       .  A
O190       Zr200   2.405       .  S
O190        C211   1.287       .  A
O191       Zr201   2.410       .  S
O191        C212   1.289       .  A
O192       Zr198   2.417       .  S
O192        C207   1.288       .  A
O193       Zr199   2.409       .  S
O193        C210   1.287       .  A
O194       Zr199   2.428       .  S
O194        C209   1.290       .  A
O195       Zr198   2.426       .  S
O195        C208   1.289       .  A
O196       Zr202   2.463       .  S
O196        C205   1.297       .  A
O197       Zr202   2.478   1_545  S
O197        C206   1.300       .  A
Zr198       O204   2.335       .  S
Zr198       O216   2.336       .  S
Zr199       O203   2.345   1_545  S
Zr199       O214   2.352   1_545  S
Zr200       O204   2.341       .  S
Zr200       O214   2.349       .  S
Zr201       O203   2.341       .  S
Zr201       O216   2.340       .  S
Zr202       O203   2.350       .  S
Zr202       O204   2.342       .  S
Zr202       O216   2.344       .  S
Zr202       O214   2.356       .  S
C205       C1383   1.478       .  S
C206       C1405   1.487       .  S
C207       C1173   1.468       .  S
C208       C1217   1.483       .  S
C209       C1195   1.495       .  S
C210       C1151   1.484       .  S
C211       C1339   1.474       .  S
C212       C1273   1.483       .  S
H213        O214   0.964   1_545  S
H215        O216   0.966       .  S
C217        N218   1.363       .  A
C217        N222   1.356       .  A
C217       C1129   1.463       .  S
N218        C219   1.364       .  A
C219        N220   1.356       .  A
C219       C1459   1.466       .  S
N220        C221   1.350       .  A
C221        N222   1.349       .  A
C221       C1283   1.472   1_545  S
C223        N224   1.374       .  A
C223        N228   1.357   1_545  A
C223       C1107   1.485       .  S
N224        C225   1.373       .  A
C225        N226   1.351   1_545  A
C225       C1449   1.476       .  S
N226        C227   1.347       .  A
C227        N228   1.353       .  A
C227       C1261   1.476       .  S
C229        N230   1.351   1_545  A
C229        N234   1.370       .  A
C229       C1085   1.472       .  S
N230        C231   1.347       .  A
C231        N232   1.351       .  A
C231       C1251   1.473       .  S
N232        C233   1.358   1_565  A
C233        N234   1.371       .  A
C233       C1493   1.480       .  S
O235       Zr271   2.416   1_554  S
O235        C246   1.289       .  A
O236       Zr270   2.424   1_554  S
O236        C247   1.289       .  A
O237       Zr243   2.415       .  S
O237        C248   1.290       .  A
O238       Zr243   2.460   1_565  S
O238        C249   1.296       .  A
O239       Zr273   2.421   1_554  S
O239        C249   1.290       .  A
O240       Zr272   2.420   1_554  S
O240        C248   1.290       .  A
O241       Zr243   2.479       .  S
O241        C247   1.299       .  A
O242       Zr243   2.472       .  S
O242        C246   1.299       .  A
Zr243       O244   2.338   1_545  S
Zr243       O245   2.360       .  S
Zr243       O253   2.341   1_545  S
Zr243       O251   2.345       .  S
O244       Zr270   2.332   1_564  S
O244       Zr273   2.332   1_554  S
O245       Zr271   2.347   1_554  S
O245       Zr272   2.356   1_554  S
C246       C1305   1.485       .  S
C247       C1097   1.483       .  S
C248       C1063   1.467       .  S
C249       C1041   1.488       .  S
H250        O251   0.965       .  S
O251       Zr270   2.325   1_554  S
O251       Zr272   2.352   1_554  S
H252        O253   0.964       .  S
O253       Zr271   2.347   1_564  S
O253       Zr273   2.333   1_554  S
O254       Zr270   2.413       .  S
O254        C277   1.287       .  A
O255       Zr271   2.435       .  S
O255        C278   1.292       .  A
O256       Zr272   2.471       .  S
O256        C279   1.297       .  A
O257       Zr273   2.447       .  S
O257        C280   1.295       .  A
O258       Zr273   2.451       .  S
O258        C281   1.296       .  A
O259       Zr272   2.479       .  S
O259        C282   1.300       .  A
O260       Zr274   2.409       .  S
O260        C283   1.289       .  A
O261       Zr274   2.447   1_565  S
O261        C284   1.294       .  A
O262       Zr272   2.453       .  S
O262        C283   1.295       .  A
O263       Zr273   2.416       .  S
O263        C284   1.290       .  A
O264       Zr270   2.424       .  S
O264        C279   1.289       .  A
O265       Zr271   2.436       .  S
O265        C282   1.292       .  A
O266       Zr271   2.452   1_565  S
O266        C281   1.294       .  A
O267       Zr270   2.431   1_565  S
O267        C280   1.290       .  A
O268       Zr274   2.459       .  S
O268        C277   1.296       .  A
O269       Zr274   2.470       .  S
O269        C278   1.299       .  A
Zr270       O276   2.339       .  S
Zr270       O288   2.334   1_545  S
Zr271       O275   2.333   1_545  S
Zr271       O286   2.343       .  S
Zr272       O276   2.342       .  S
Zr272       O286   2.348       .  S
Zr273       O275   2.336       .  S
Zr273       O288   2.339       .  S
Zr274       O275   2.335   1_545  S
Zr274       O276   2.343       .  S
Zr274       O288   2.341   1_545  S
Zr274       O286   2.347       .  S
C277       C1141   1.473       .  S
C278       C1119   1.498       .  S
C279        C987   1.479   1_556  S
C280        C943   1.478       .  S
C281        C953   1.490   1_556  S
C282        C909   1.504       .  S
C283        C997   1.478       .  S
C284       C1019   1.475       .  S
H285        O286   0.963       .  S
H287        O288   0.964       .  S
C289        N290   1.368       .  A
C289        N294   1.354       .  A
C289       C1163   1.476       .  S
N290        C291   1.368       .  A
C291        N292   1.353       .  A
C291        C887   1.471       .  S
N292        C293   1.349       .  A
C293        N294   1.351       .  A
C293       C1075   1.475       .  S
C295        N296   1.369       .  A
C295        N300   1.359       .  A
C295        C877   1.486       .  S
N296        C297   1.367       .  A
C297        N298   1.355       .  A
C297       C1185   1.468       .  S
N298        C299   1.349       .  A
C299        N300   1.353       .  A
C299       C1053   1.479       .  S
C301        N302   1.355       .  A
C301        N306   1.374       .  A
C301        C855   1.487       .  S
N302        C303   1.346       .  A
C303        N304   1.347       .  A
C303       C1031   1.478       .  S
N304        C305   1.359       .  A
C305        N306   1.373       .  A
C305       C1229   1.482       .  S
C307        N308   1.359       .  A
C307        N312   1.374       .  A
C307       C1207   1.484       .  S
N308        C309   1.354       .  A
C309        N310   1.347       .  A
C309       C1009   1.476       .  S
N310        C311   1.349       .  A
C311        N312   1.371       .  A
C311        C833   1.476       .  S
O313       Zr349   2.429   1_554  S
O313        C324   1.291       .  A
O314       Zr348   2.437   1_554  S
O314        C325   1.291       .  A
O315       Zr321   2.455   1_455  S
O315        C326   1.296       .  A
O316       Zr321   2.441       .  S
O316        C327   1.294       .  A
O317       Zr351   2.434   1_554  S
O317        C327   1.292       .  A
O318       Zr350   2.409   1_554  S
O318        C326   1.288       .  A
O319       Zr321   2.447       .  S
O319        C325   1.294       .  A
O320       Zr321   2.470       .  S
O320        C324   1.299       .  A
Zr321       O322   2.333       .  S
Zr321       O323   2.343   1_655  S
Zr321       O331   2.356       .  S
Zr321       O329   2.356   1_655  S
O322       Zr348   2.329   1_554  S
O322       Zr351   2.337   1_554  S
O323       Zr349   2.339   1_454  S
O323       Zr350   2.342   1_554  S
C324       C1999   1.494       .  S
C325       C1625   1.476       .  S
C326        C777   1.476       .  S
C327        C799   1.485       .  S
H328        O329   0.966       .  S
O329       Zr348   2.334   1_454  S
O329       Zr350   2.347   1_554  S
H330        O331   0.967       .  S
O331       Zr349   2.360   1_554  S
O331       Zr351   2.366   1_554  S
O332       Zr348   2.437       .  S
O332        C355   1.291       .  A
O333       Zr349   2.431       .  S
O333        C356   1.291       .  A
O334       Zr350   2.445       .  S
O334        C357   1.293       .  A
O335       Zr351   2.477   1_554  S
O335        C358   1.299       .  A
O336       Zr351   2.484       .  S
O336        C359   1.301       .  A
O337       Zr350   2.453       .  S
O337        C360   1.297       .  A
O338       Zr352   2.431   1_455  S
O338        C361   1.292       .  A
O339       Zr352   2.407       .  S
O339        C362   1.288       .  A
O340       Zr350   2.428       .  S
O340        C361   1.291       .  A
O341       Zr351   2.457       .  S
O341        C362   1.296       .  A
O342       Zr348   2.439   1_455  S
O342        C357   1.292       .  A
O343       Zr349   2.462   1_455  S
O343        C360   1.296       .  A
O344       Zr349   2.429       .  S
O344        C359   1.291       .  A
O345       Zr348   2.424   1_554  S
O345        C358   1.289       .  A
O346       Zr352   2.455       .  S
O346        C355   1.296       .  A
O347       Zr352   2.471       .  S
O347        C356   1.299       .  A
Zr348       O354   2.331   1_655  S
Zr348       O366   2.338       .  S
Zr349       O353   2.348       .  S
Zr349       O364   2.341   1_655  S
Zr350       O354   2.328       .  S
Zr350       O364   2.335       .  S
Zr351       O353   2.350       .  S
Zr351       O366   2.342       .  S
Zr352       O353   2.341       .  S
Zr352       O354   2.335   1_655  S
Zr352       O366   2.343       .  S
Zr352       O364   2.336   1_655  S
C355       C1701   1.480       .  S
C356       C1657   1.496       .  S
C357        C689   1.480       .  S
C358        C645   1.482       .  S
C359        C679   1.499       .  S
C360        C711   1.498       .  S
C361        C755   1.478       .  S
C362        C733   1.479       .  S
H363        O364   0.965       .  S
H365        O366   0.965       .  S
C367        N368   1.356       .  A
C367        N372   1.366       .  A
C367       C1867   1.471       .  S
N368        C369   1.354       .  A
C369        N370   1.351       .  A
C369        C811   1.479       .  S
N370        C371   1.355       .  A
C371        N372   1.365       .  A
C371        C623   1.468       .  S
C373        N374   1.369       .  A
C373        N378   1.357       .  A
C373        C601   1.477       .  S
N374        C375   1.367       .  A
C375        N376   1.353       .  A
C375       C1833   1.470       .  S
N376        C377   1.349       .  A
C377        N378   1.351       .  A
C377        C789   1.476       .  S
C379        N380   1.366       .  A
C379        N384   1.356       .  A
C379        C579   1.473       .  S
N380        C381   1.366       .  A
C381        N382   1.354       .  A
C381       C1889   1.465       .  S
N382        C383   1.350       .  A
C383        N384   1.350       .  A
C383        C767   1.476       .  S
C385        N386   1.359       .  A
C385        N390   1.370       .  A
C385       C1911   1.477       .  S
N386        C387   1.354       .  A
C387        N388   1.350       .  A
C387        C745   1.479       .  S
N388        C389   1.352       .  A
C389        N390   1.368       .  A
C389        C557   1.472       .  S
C391        N392   1.363       .  A
C391        N396   1.374       .  A
C391        C723   1.492       .  S
N392        C393   1.355       .  A
C393        N394   1.345       .  A
C393        C547   1.479       .  S
N394        C395   1.350       .  A
C395        N396   1.372       .  A
C395        C975   1.474   1_556  S
O397       Zr433   2.437       .  S
O397        C408   1.293       .  A
O398       Zr432   2.427       .  S
O398        C409   1.291       .  A
O399       Zr405   2.476       .  S
O399        C410   1.299       .  A
O400       Zr405   2.446       .  S
O400        C411   1.295       .  A
O401       Zr435   2.421       .  S
O401        C411   1.291       .  A
O402       Zr434   2.388       .  S
O402        C410   1.285       .  A
O403       Zr405   2.489       .  S
O403        C409   1.302       .  A
O404       Zr405   2.485   1_554  S
O404        C408   1.301       .  A
Zr405       O406   2.357       .  S
Zr405       O407   2.360   1_556  S
Zr405       O415   2.348   1_556  S
Zr405       O413   2.344       .  S
O406       Zr432   2.350       .  S
O406       Zr435   2.350       .  S
O407       Zr433   2.345       .  S
O407       Zr434   2.343   1_554  S
C408        C899   1.496       .  S
C409        C821   1.500       .  S
C410        C535   1.477       .  S
C411        C469   1.479   1_556  S
H412        O413   0.964       .  S
O413       Zr432   2.330       .  S
O413       Zr434   2.350       .  S
H414        O415   0.963       .  S
O415       Zr433   2.323       .  S
O415       Zr435   2.346   1_554  S
O416       Zr432   2.453       .  S
O416        C439   1.294       .  A
O417       Zr433   2.452       .  S
O417        C440   1.295       .  A
O418       Zr434   2.436       .  S
O418        C441   1.293       .  A
O419       Zr435   2.455       .  S
O419        C442   1.295       .  A
O420       Zr435   2.452   1_554  S
O420        C443   1.294       .  A
O421       Zr434   2.445   1_554  S
O421        C444   1.294       .  A
O422       Zr436   2.417       .  S
O422        C445   1.289       .  A
O423       Zr436   2.379       .  S
O423        C446   1.283       .  A
O424       Zr434   2.453       .  S
O424        C445   1.295       .  A
O425       Zr435   2.455       .  S
O425        C446   1.294       .  A
O426       Zr432   2.445       .  S
O426        C441   1.294       .  A
O427       Zr433   2.430       .  S
O427        C444   1.291       .  A
O428       Zr433   2.419       .  S
O428        C443   1.290       .  A
O429       Zr432   2.422       .  S
O429        C442   1.290       .  A
O430       Zr436   2.445       .  S
O430        C439   1.294       .  A
O431       Zr436   2.451   1_554  S
O431        C440   1.295       .  A
Zr432       O438   2.338       .  S
Zr432       O450   2.335       .  S
Zr433       O437   2.339       .  S
Zr433       O448   2.332       .  S
Zr434       O438   2.327       .  S
Zr434       O448   2.326   1_556  S
Zr435       O437   2.345   1_556  S
Zr435       O450   2.344       .  S
Zr436       O437   2.333   1_556  S
Zr436       O438   2.324       .  S
Zr436       O450   2.345       .  S
Zr436       O448   2.331   1_556  S
C439        C843   1.485       .  S
C440        C865   1.496       .  S
C441        C591   1.482       .  S
C442        C569   1.487       .  S
C443        C635   1.475       .  S
C444        C613   1.487       .  S
C445        C503   1.478       .  S
C446        C513   1.474       .  S
H447        O448   0.966       .  S
H449        O450   0.966       .  S
C451        N452   1.373   1_556  A
C451        N456   1.359       .  A
C451        C965   1.483   1_556  S
N452        C453   1.371       .  A
C453        N454   1.351   1_554  A
C453        C657   1.474       .  S
N454        C455   1.345       .  A
C455        N456   1.352       .  A
C455        C525   1.473       .  S
C457        N458   1.356       .  A
C457        N462   1.374       .  A
C457        C931   1.485       .  S
N458        C459   1.346       .  A
C459        N460   1.348       .  A
C459        C491   1.471       .  S
N460        C461   1.358       .  A
C461        N462   1.374       .  A
C461        C701   1.483       .  S
C463        N464   1.372       .  A
C463        N468   1.355       .  A
C463        C667   1.487       .  S
N464        C465   1.372       .  A
C465        N466   1.355       .  A
C465        C921   1.485       .  S
N466        C467   1.356       .  A
C467        N468   1.356       .  A
C467        C481   1.491       .  S
C469        C470   1.402       .  A
C469        C474   1.406       .  A
C470        C471   1.394       .  A
C470        H483   1.083       .  S
C471        C472   1.413       .  A
C471        H484   1.079       .  S
C472        C478   1.419       .  A
C472        C473   1.419       .  A
C473        C475   1.403       .  A
C473        C474   1.400       .  A
C474        H485   1.084       .  S
C475        C476   1.390       .  A
C475        H486   1.083       .  S
C476        C477   1.397       .  A
C476        H487   1.084       .  S
C477        C478   1.422       .  A
C477        C482   1.404       .  A
C478        C479   1.415       .  A
C479        C480   1.399       .  A
C479        H488   1.080       .  S
C480        C481   1.404       .  A
C480        H489   1.083       .  S
C481        C482   1.404       .  A
C482        H490   1.085       .  S
C491        C492   1.400       .  A
C491        C496   1.397   1_556  A
C492        C493   1.395       .  A
C492        H505   1.084       .  S
C493        C494   1.415       .  A
C493        H506   1.077       .  S
C494        C500   1.429       .  A
C494        C495   1.423       .  A
C495        C497   1.398   1_556  A
C495        C496   1.402   1_556  A
C496        H507   1.085       .  S
C497        C498   1.388       .  A
C497        H508   1.084       .  S
C498        C499   1.398   1_554  A
C498        H509   1.084       .  S
C499        C500   1.423       .  A
C499        C504   1.404       .  A
C500        C501   1.414       .  A
C501        C502   1.395       .  A
C501        H510   1.077       .  S
C502        C503   1.402       .  A
C502        H511   1.084       .  S
C503        C504   1.399       .  A
C504        H512   1.085   1_556  S
C513        C514   1.398       .  A
C513        C518   1.403       .  A
C514        C515   1.401       .  A
C514        H527   1.083       .  S
C515        C516   1.420       .  A
C515        H528   1.077       .  S
C516        C522   1.424       .  A
C516        C517   1.417       .  A
C517        C519   1.398       .  A
C517        C518   1.386       .  A
C518        H529   1.085       .  S
C519        C520   1.381       .  A
C519        H530   1.084       .  S
C520        C521   1.395       .  A
C520        H531   1.084       .  S
C521        C522   1.425       .  A
C521        C526   1.397       .  A
C522        C523   1.410       .  A
C523        C524   1.392       .  A
C523        H532   1.077       .  S
C524        C525   1.403       .  A
C524        H533   1.083       .  S
C525        C526   1.396       .  A
C526        H534   1.085       .  S
C535        C536   1.405       .  A
C535        C540   1.398       .  A
C536        C537   1.384       .  A
C536        H549   1.080       .  S
C537        C538   1.406       .  A
C537        H550   1.077       .  S
C538        C544   1.423       .  A
C538        C539   1.425       .  A
C539        C541   1.398       .  A
C539        C540   1.409       .  A
C540        H551   1.084       .  S
C541        C542   1.391       .  A
C541        H552   1.084       .  S
C542        C543   1.402       .  A
C542        H553   1.084       .  S
C543        C544   1.418       .  A
C543        C548   1.401       .  A
C544        C545   1.417       .  A
C545        C546   1.393       .  A
C545        H554   1.077       .  S
C546        C547   1.397       .  A
C546        H555   1.083       .  S
C547        C548   1.407       .  A
C548        H556   1.084       .  S
C557        C558   1.397       .  A
C557        C562   1.402       .  A
C558        C559   1.402       .  A
C558        H571   1.083       .  S
C559        C560   1.420       .  A
C559        H572   1.077       .  S
C560        C566   1.432       .  A
C560        C561   1.420       .  A
C561        C563   1.401       .  A
C561        C562   1.404       .  A
C562        H573   1.085       .  S
C563        C564   1.391       .  A
C563        H574   1.084       .  S
C564        C565   1.399       .  A
C564        H575   1.084       .  S
C565        C566   1.425       .  A
C565        C570   1.410       .  A
C566        C567   1.411       .  A
C567        C568   1.393       .  A
C567        H576   1.077       .  S
C568        C569   1.404       .  A
C568        H577   1.083       .  S
C569        C570   1.403       .  A
C570        H578   1.084       .  S
C579        C580   1.398       .  A
C579        C584   1.399       .  A
C580        C581   1.404       .  A
C580        H593   1.083       .  S
C581        C582   1.420       .  A
C581        H594   1.078       .  S
C582        C588   1.432       .  A
C582        C583   1.421       .  A
C583        C585   1.398       .  A
C583        C584   1.398       .  A
C584        H595   1.086       .  S
C585        C586   1.386       .  A
C585        H596   1.084       .  S
C586        C587   1.398       .  A
C586        H597   1.084       .  S
C587        C588   1.423       .  A
C587        C592   1.401       .  A
C588        C589   1.415       .  A
C589        C590   1.400       .  A
C589        H598   1.077       .  S
C590        C591   1.401       .  A
C590        H599   1.083       .  S
C591        C592   1.400       .  A
C592        H600   1.081       .  S
C601        C602   1.398       .  A
C601        C606   1.401       .  A
C602        C603   1.404       .  A
C602        H615   1.083       .  S
C603        C604   1.419       .  A
C603        H616   1.078       .  S
C604        C610   1.433       .  A
C604        C605   1.422       .  A
C605        C607   1.398       .  A
C605        C606   1.399       .  A
C606        H617   1.085       .  S
C607        C608   1.386       .  A
C607        H618   1.084       .  S
C608        C609   1.397       .  A
C608        H619   1.084       .  S
C609        C610   1.423       .  A
C609        C614   1.401       .  A
C610        C611   1.415       .  A
C611        C612   1.401       .  A
C611        H620   1.078       .  S
C612        C613   1.405       .  A
C612        H621   1.083       .  S
C613        C614   1.401       .  A
C614        H622   1.084       .  S
C623        C624   1.400       .  A
C623        C628   1.396       .  A
C624        C625   1.402       .  A
C624        H637   1.083       .  S
C625        C626   1.416       .  A
C625        H638   1.078       .  S
C626        C632   1.432       .  A
C626        C627   1.424       .  A
C627        C629   1.397       .  A
C627        C628   1.401       .  A
C628        H639   1.085       .  S
C629        C630   1.385       .  A
C629        H640   1.084       .  S
C630        C631   1.397       .  A
C630        H641   1.084       .  S
C631        C632   1.422       .  A
C631        C636   1.397       .  A
C632        C633   1.418       .  A
C633        C634   1.403       .  A
C633        H642   1.078       .  S
C634        C635   1.399       .  A
C634        H643   1.081       .  S
C635        C636   1.398       .  A
C636        H644   1.085       .  S
C645        C646   1.404   1_554  A
C645        C650   1.399       .  A
C646        C647   1.401       .  A
C646        H659   1.084       .  S
C647        C648   1.414   1_556  A
C647        H660   1.079       .  S
C648        C654   1.435       .  A
C648        C649   1.425       .  A
C649        C651   1.398       .  A
C649        C650   1.409       .  A
C650        H661   1.085       .  S
C651        C652   1.390       .  A
C651        H662   1.084       .  S
C652        C653   1.400       .  A
C652        H663   1.084       .  S
C653        C654   1.421       .  A
C653        C658   1.405       .  A
C654        C655   1.418   1_554  A
C655        C656   1.406       .  A
C655        H664   1.078       .  S
C656        C657   1.400   1_556  A
C656        H665   1.083       .  S
C657        C658   1.402       .  A
C658        H666   1.086       .  S
C667        C668   1.399       .  A
C667        C672   1.405       .  A
C668        C669   1.408   1_554  A
C668        H681   1.083       .  S
C669        C670   1.422   1_556  A
C669        H682   1.078       .  S
C670        C676   1.439   1_554  A
C670        C671   1.421       .  A
C671        C673   1.401       .  A
C671        C672   1.408       .  A
C672        H683   1.085       .  S
C673        C674   1.392       .  A
C673        H684   1.084       .  S
C674        C675   1.399       .  A
C674        H685   1.084       .  S
C675        C676   1.426   1_554  A
C675        C680   1.415       .  A
C676        C677   1.412       .  A
C677        C678   1.400       .  A
C677        H686   1.078       .  S
C678        C679   1.408       .  A
C678        H687   1.083       .  S
C679        C680   1.404   1_556  A
C680        H688   1.084       .  S
C689        C690   1.400       .  A
C689        C694   1.404   1_556  A
C690        C691   1.396       .  A
C690        H703   1.084       .  S
C691        C692   1.416       .  A
C691        H704   1.078       .  S
C692        C698   1.430       .  A
C692        C693   1.421   1_556  A
C693        C695   1.402       .  A
C693        C694   1.409       .  A
C694        H705   1.084       .  S
C695        C696   1.396       .  A
C695        H706   1.084       .  S
C696        C697   1.401   1_554  A
C696        H707   1.083       .  S
C697        C698   1.425       .  A
C697        C702   1.417       .  A
C698        C699   1.409       .  A
C699        C700   1.392       .  A
C699        H708   1.078       .  S
C700        C701   1.403       .  A
C700        H709   1.084       .  S
C701        C702   1.403       .  A
C702        H710   1.084   1_556  S
C711        C712   1.402   1_556  A
C711        C716   1.411       .  A
C712        C713   1.395       .  A
C712        H725   1.083       .  S
C713        C714   1.414       .  A
C713        H726   1.076       .  S
C714        C720   1.436   1_554  A
C714        C715   1.422   1_554  A
C715        C717   1.404       .  A
C715        C716   1.420       .  A
C716        H727   1.084       .  S
C717        C718   1.400       .  A
C717        H728   1.084       .  S
C718        C719   1.404       .  A
C718        H729   1.084       .  S
C719        C720   1.425       .  A
C719        C724   1.423       .  A
C720        C721   1.412   1_556  A
C721        C722   1.393       .  A
C721        H730   1.076       .  S
C722        C723   1.401   1_554  A
C722        H731   1.084       .  S
C723        C724   1.408       .  A
C724        H732   1.084       .  S
C733        C734   1.400       .  A
C733        C738   1.405       .  A
C734        C735   1.398       .  A
C734        H747   1.083       .  S
C735        C736   1.416       .  A
C735        H748   1.078       .  S
C736        C742   1.423       .  A
C736        C737   1.419       .  A
C737        C739   1.401       .  A
C737        C738   1.396       .  A
C738        H749   1.084       .  S
C739        C740   1.389       .  A
C739        H750   1.084       .  S
C740        C741   1.398       .  A
C740        H751   1.084       .  S
C741        C742   1.421       .  A
C741        C746   1.402       .  A
C742        C743   1.410       .  A
C743        C744   1.394       .  A
C743        H752   1.079       .  S
C744        C745   1.404       .  A
C744        H753   1.083       .  S
C745        C746   1.402       .  A
C746        H754   1.084       .  S
C755        C756   1.401       .  A
C755        C760   1.403       .  A
C756        C757   1.392       .  A
C756        H769   1.083       .  S
C757        C758   1.413       .  A
C757        H770   1.077       .  S
C758        C764   1.424       .  A
C758        C759   1.421       .  A
C759        C761   1.400       .  A
C759        C760   1.402       .  A
C760        H771   1.084       .  S
C761        C762   1.389       .  A
C761        H772   1.084       .  S
C762        C763   1.399       .  A
C762        H773   1.084       .  S
C763        C764   1.420       .  A
C763        C768   1.401       .  A
C764        C765   1.413       .  A
C765        C766   1.392       .  A
C765        H774   1.077       .  S
C766        C767   1.401       .  A
C766        H775   1.083       .  S
C767        C768   1.402       .  A
C768        H776   1.084       .  S
C777        C778   1.399       .  A
C777        C782   1.404       .  A
C778        C779   1.397       .  A
C778        H791   1.083       .  S
C779        C780   1.417       .  A
C779        H792   1.078       .  S
C780        C786   1.423       .  A
C780        C781   1.418       .  A
C781        C783   1.400       .  A
C781        C782   1.395       .  A
C782        H793   1.085       .  S
C783        C784   1.388       .  A
C783        H794   1.084       .  S
C784        C785   1.398       .  A
C784        H795   1.084       .  S
C785        C786   1.422       .  A
C785        C790   1.401       .  A
C786        C787   1.410       .  A
C787        C788   1.391       .  A
C787        H796   1.078       .  S
C788        C789   1.402       .  A
C788        H797   1.083       .  S
C789        C790   1.401       .  A
C790        H798   1.085       .  S
C799        C800   1.402       .  A
C799        C804   1.407       .  A
C800        C801   1.391       .  A
C800        H813   1.083       .  S
C801        C802   1.411       .  A
C801        H814   1.078       .  S
C802        C808   1.421       .  A
C802        C803   1.421       .  A
C803        C805   1.402       .  A
C803        C804   1.406       .  A
C804        H815   1.084       .  S
C805        C806   1.393       .  A
C805        H816   1.084       .  S
C806        C807   1.400       .  A
C806        H817   1.084       .  S
C807        C808   1.418       .  A
C807        C812   1.403       .  A
C808        C809   1.412       .  A
C809        C810   1.393       .  A
C809        H818   1.079       .  S
C810        C811   1.401       .  A
C810        H819   1.083       .  S
C811        C812   1.406       .  A
C812        H820   1.084       .  S
C821        C822   1.407       .  A
C821        C826   1.407       .  A
C822        C823   1.397       .  A
C822        H835   1.083       .  S
C823        C824   1.411       .  A
C823        H836   1.078       .  S
C824        C830   1.436       .  A
C824        C825   1.425       .  A
C825        C827   1.401       .  A
C825        C826   1.417       .  A
C826        H837   1.084       .  S
C827        C828   1.395       .  A
C827        H838   1.084       .  S
C828        C829   1.402       .  A
C828        H839   1.084       .  S
C829        C830   1.419       .  A
C829        C834   1.410       .  A
C830        C831   1.418       .  A
C831        C832   1.403       .  A
C831        H840   1.078       .  S
C832        C833   1.398       .  A
C832        H841   1.083       .  S
C833        C834   1.407       .  A
C834        H842   1.085       .  S
C843        C844   1.403       .  A
C843        C848   1.400       .  A
C844        C845   1.405       .  A
C844        H857   1.083       .  S
C845        C846   1.417       .  A
C845        H858   1.078       .  S
C846        C852   1.436       .  A
C846        C847   1.424       .  A
C847        C849   1.397       .  A
C847        C848   1.403       .  A
C848        H859   1.085       .  S
C849        C850   1.386       .  A
C849        H860   1.084       .  S
C850        C851   1.400       .  A
C850        H861   1.084       .  S
C851        C852   1.420       .  A
C851        C856   1.399       .  A
C852        C853   1.421       .  A
C853        C854   1.409       .  A
C853        H862   1.078       .  S
C854        C855   1.400       .  A
C854        H863   1.083       .  S
C855        C856   1.405       .  A
C856        H864   1.085       .  S
C865        C866   1.406       .  A
C865        C870   1.404       .  A
C866        C867   1.404       .  A
C866        H879   1.083       .  S
C867        C868   1.416       .  A
C867        H880   1.078       .  S
C868        C874   1.437       .  A
C868        C869   1.423       .  A
C869        C871   1.399       .  A
C869        C870   1.406       .  A
C870        H881   1.084       .  S
C871        C872   1.388       .  A
C871        H882   1.084       .  S
C872        C873   1.399       .  A
C872        H883   1.084       .  S
C873        C874   1.421       .  A
C873        C878   1.403       .  A
C874        C875   1.420       .  A
C875        C876   1.406       .  A
C875        H884   1.078       .  S
C876        C877   1.400       .  A
C876        H885   1.083       .  S
C877        C878   1.404       .  A
C878        H886   1.085       .  S
C887        C888   1.402       .  A
C887        C892   1.398       .  A
C888        C889   1.405       .  A
C888        H901   1.084       .  S
C889        C890   1.416       .  A
C889        H902   1.079       .  S
C890        C896   1.439       .  A
C890        C891   1.425       .  A
C891        C893   1.397       .  A
C891        C892   1.404       .  A
C892        H903   1.085       .  S
C893        C894   1.386       .  A
C893        H904   1.084       .  S
C894        C895   1.399       .  A
C894        H905   1.084       .  S
C895        C896   1.421       .  A
C895        C900   1.403       .  A
C896        C897   1.421       .  A
C897        C898   1.411       .  A
C897        H906   1.079       .  S
C898        C899   1.405       .  A
C898        H907   1.083       .  S
C899        C900   1.403       .  A
C900        H908   1.085       .  S
C909        C910   1.408       .  A
C909        C914   1.408       .  A
C910        C911   1.398   1_556  A
C910        H923   1.083       .  S
C911        C912   1.411       .  A
C911        H924   1.078       .  S
C912        C918   1.439       .  A
C912        C913   1.426       .  A
C913        C915   1.401       .  A
C913        C914   1.418   1_554  A
C914        H925   1.084       .  S
C915        C916   1.395       .  A
C915        H926   1.084       .  S
C916        C917   1.402       .  A
C916        H927   1.084       .  S
C917        C918   1.420       .  A
C917        C922   1.411       .  A
C918        C919   1.421       .  A
C919        C920   1.406       .  A
C919        H928   1.078       .  S
C920        C921   1.399       .  A
C920        H929   1.083       .  S
C921        C922   1.406       .  A
C922        H930   1.085       .  S
C931        C932   1.401   1_556  A
C931        C936   1.402       .  A
C932        C933   1.411       .  A
C932        H945   1.083       .  S
C933        C934   1.422   1_554  A
C933        H946   1.078       .  S
C934        C940   1.436       .  A
C934        C935   1.420       .  A
C935        C937   1.399       .  A
C935        C936   1.397       .  A
C936        H947   1.086       .  S
C937        C938   1.384       .  A
C937        H948   1.084       .  S
C938        C939   1.396       .  A
C938        H949   1.084       .  S
C939        C940   1.425       .  A
C939        C944   1.401       .  A
C940        C941   1.416   1_556  A
C941        C942   1.404       .  A
C941        H950   1.078       .  S
C942        C943   1.403   1_554  A
C942        H951   1.084       .  S
C943        C944   1.396       .  A
C944        H952   1.085       .  S
C953        C954   1.400       .  A
C953        C958   1.408   1_554  A
C954        C955   1.394       .  A
C954        H967   1.084       .  S
C955        C956   1.414       .  A
C955        H968   1.076       .  S
C956        C962   1.433       .  A
C956        C957   1.423   1_554  A
C957        C959   1.403       .  A
C957        C958   1.416       .  A
C958        H969   1.084       .  S
C959        C960   1.397       .  A
C959        H970   1.084       .  S
C960        C961   1.402       .  A
C960        H971   1.084       .  S
C961        C962   1.424   1_556  A
C961        C966   1.417       .  A
C962        C963   1.413       .  A
C963        C964   1.392       .  A
C963        H972   1.077       .  S
C964        C965   1.401       .  A
C964        H973   1.084       .  S
C965        C966   1.403   1_554  A
C966        H974   1.084       .  S
C975        C976   1.404       .  A
C975        C980   1.401   1_554  A
C976        C977   1.403       .  A
C976        H989   1.084       .  S
C977        C978   1.414       .  A
C977        H990   1.079       .  S
C978        C984   1.436       .  A
C978        C979   1.423   1_554  A
C979        C981   1.399       .  A
C979        C980   1.409       .  A
C980        H991   1.085       .  S
C981        C982   1.389       .  A
C981        H992   1.084       .  S
C982        C983   1.399       .  A
C982        H993   1.084       .  S
C983        C984   1.422   1_556  A
C983        C988   1.404       .  A
C984        C985   1.419       .  A
C985        C986   1.405       .  A
C985        H994   1.078       .  S
C986        C987   1.401       .  A
C986        H995   1.084       .  S
C987        C988   1.399   1_554  A
C988        H996   1.085       .  S
C997        C998   1.400       .  A
C997       C1002   1.403       .  A
C998        C999   1.399       .  A
C998       H1011   1.083       .  S
C999       C1000   1.417       .  A
C999       H1012   1.078       .  S
C1000      C1006   1.423       .  A
C1000      C1001   1.418       .  A
C1001      C1003   1.400       .  A
C1001      C1002   1.395       .  A
C1002      H1013   1.084       .  S
C1003      C1004   1.386       .  A
C1003      H1014   1.084       .  S
C1004      C1005   1.396       .  A
C1004      H1015   1.084       .  S
C1005      C1006   1.422       .  A
C1005      C1010   1.399       .  A
C1006      C1007   1.410       .  A
C1007      C1008   1.393       .  A
C1007      H1016   1.079       .  S
C1008      C1009   1.405       .  A
C1008      H1017   1.083       .  S
C1009      C1010   1.399       .  A
C1010      H1018   1.085       .  S
C1019      C1020   1.401       .  A
C1019      C1024   1.401       .  A
C1020      C1021   1.390       .  A
C1020      H1033   1.084       .  S
C1021      C1022   1.413       .  A
C1021      H1034   1.077       .  S
C1022      C1028   1.425       .  A
C1022      C1023   1.422       .  A
C1023      C1025   1.399       .  A
C1023      C1024   1.405       .  A
C1024      H1035   1.084       .  S
C1025      C1026   1.391       .  A
C1025      H1036   1.084       .  S
C1026      C1027   1.400       .  A
C1026      H1037   1.084       .  S
C1027      C1028   1.422       .  A
C1027      C1032   1.405       .  A
C1028      C1029   1.412       .  A
C1029      C1030   1.390       .  A
C1029      H1038   1.077       .  S
C1030      C1031   1.400       .  A
C1030      H1039   1.083       .  S
C1031      C1032   1.403       .  A
C1032      H1040   1.084       .  S
C1041      C1042   1.402       .  A
C1041      C1046   1.405       .  A
C1042      C1043   1.403       .  A
C1042      H1055   1.083       .  S
C1043      C1044   1.418       .  A
C1043      H1056   1.078       .  S
C1044      C1050   1.431       .  A
C1044      C1045   1.420       .  A
C1045      C1047   1.399       .  A
C1045      C1046   1.398       .  A
C1046      H1057   1.084       .  S
C1047      C1048   1.386       .  A
C1047      H1058   1.084       .  S
C1048      C1049   1.397       .  A
C1048      H1059   1.084       .  S
C1049      C1050   1.424       .  A
C1049      C1054   1.401       .  A
C1050      C1051   1.414       .  A
C1051      C1052   1.397       .  A
C1051      H1060   1.078       .  S
C1052      C1053   1.403       .  A
C1052      H1061   1.083       .  S
C1053      C1054   1.399       .  A
C1054      H1062   1.085       .  S
C1063      C1064   1.401       .  A
C1063      C1068   1.400       .  A
C1064      C1065   1.385       .  A
C1064      H1077   1.083       .  S
C1065      C1066   1.409       .  A
C1065      H1078   1.078       .  S
C1066      C1072   1.416       .  A
C1066      C1067   1.422       .  A
C1067      C1069   1.399       .  A
C1067      C1068   1.399       .  A
C1068      H1079   1.085       .  S
C1069      C1070   1.390       .  A
C1069      H1080   1.084       .  S
C1070      C1071   1.400       .  A
C1070      H1081   1.084       .  S
C1071      C1072   1.417       .  A
C1071      C1076   1.399       .  A
C1072      C1073   1.412       .  A
C1073      C1074   1.391       .  A
C1073      H1082   1.079       .  S
C1074      C1075   1.400       .  A
C1074      H1083   1.084       .  S
C1075      C1076   1.405       .  A
C1076      H1084   1.085       .  S
C1085      C1086   1.401       .  A
C1085      C1090   1.402   1_545  A
C1086      C1087   1.401       .  A
C1086      H1099   1.084       .  S
C1087      C1088   1.414       .  A
C1087      H1100   1.079       .  S
C1088      C1094   1.434       .  A
C1088      C1089   1.422   1_545  A
C1089      C1091   1.400       .  A
C1089      C1090   1.410       .  A
C1090      H1101   1.085       .  S
C1091      C1092   1.392       .  A
C1091      H1102   1.084       .  S
C1092      C1093   1.401       .  A
C1092      H1103   1.084       .  S
C1093      C1094   1.422   1_565  A
C1093      C1098   1.407       .  A
C1094      C1095   1.418       .  A
C1095      C1096   1.404       .  A
C1095      H1104   1.079       .  S
C1096      C1097   1.400       .  A
C1096      H1105   1.084       .  S
C1097      C1098   1.403   1_545  A
C1098      H1106   1.085       .  S
C1107      C1108   1.402       .  A
C1107      C1112   1.402       .  A
C1108      C1109   1.397       .  A
C1108      H1121   1.084       .  S
C1109      C1110   1.412       .  A
C1109      H1122   1.077       .  S
C1110      C1116   1.437       .  A
C1110      C1111   1.426       .  A
C1111      C1113   1.400       .  A
C1111      C1112   1.417       .  A
C1112      H1123   1.084       .  S
C1113      C1114   1.394       .  A
C1113      H1124   1.084       .  S
C1114      C1115   1.402       .  A
C1114      H1125   1.084       .  S
C1115      C1116   1.420       .  A
C1115      C1120   1.410       .  A
C1116      C1117   1.418       .  A
C1117      C1118   1.403       .  A
C1117      H1126   1.077       .  S
C1118      C1119   1.403       .  A
C1118      H1127   1.083       .  S
C1119      C1120   1.409       .  A
C1120      H1128   1.084       .  S
C1129      C1130   1.396       .  A
C1129      C1134   1.396       .  A
C1130      C1131   1.401       .  A
C1130      H1143   1.083   1_545  S
C1131      C1132   1.419       .  A
C1131      H1144   1.078   1_545  S
C1132      C1138   1.429       .  A
C1132      C1133   1.422       .  A
C1133      C1135   1.398       .  A
C1133      C1134   1.397       .  A
C1134      H1145   1.086       .  S
C1135      C1136   1.386       .  A
C1135      H1146   1.084       .  S
C1136      C1137   1.397       .  A
C1136      H1147   1.083       .  S
C1137      C1138   1.424       .  A
C1137      C1142   1.401       .  A
C1138      C1139   1.414       .  A
C1139      C1140   1.397       .  A
C1139      H1148   1.078   1_545  S
C1140      C1141   1.402       .  A
C1140      H1149   1.083   1_545  S
C1141      C1142   1.397       .  A
C1142      H1150   1.084       .  S
C1151      C1152   1.406       .  A
C1151      C1156   1.400       .  A
C1152      C1153   1.394       .  A
C1152      H1165   1.083       .  S
C1153      C1154   1.411       .  A
C1153      H1166   1.078       .  S
C1154      C1160   1.429       .  A
C1154      C1155   1.425       .  A
C1155      C1157   1.399       .  A
C1155      C1156   1.407       .  A
C1156      H1167   1.084       .  S
C1157      C1158   1.390       .  A
C1157      H1168   1.084       .  S
C1158      C1159   1.401       .  A
C1158      H1169   1.084       .  S
C1159      C1160   1.419       .  A
C1159      C1164   1.401       .  A
C1160      C1161   1.419       .  A
C1161      C1162   1.401       .  A
C1161      H1170   1.078       .  S
C1162      C1163   1.396       .  A
C1162      H1171   1.083       .  S
C1163      C1164   1.405       .  A
C1164      H1172   1.085       .  S
C1173      C1174   1.399       .  A
C1173      C1178   1.397       .  A
C1174      C1175   1.396       .  A
C1174      H1187   1.084       .  S
C1175      C1176   1.415       .  A
C1175      H1188   1.077       .  S
C1176      C1182   1.430       .  A
C1176      C1177   1.424       .  A
C1177      C1179   1.398       .  A
C1177      C1178   1.404       .  A
C1178      H1189   1.085       .  S
C1179      C1180   1.389       .  A
C1179      H1190   1.084       .  S
C1180      C1181   1.400       .  A
C1180      H1191   1.084       .  S
C1181      C1182   1.422       .  A
C1181      C1186   1.405       .  A
C1182      C1183   1.416       .  A
C1183      C1184   1.399       .  A
C1183      H1192   1.077       .  S
C1184      C1185   1.398       .  A
C1184      H1193   1.084       .  S
C1185      C1186   1.400       .  A
C1186      H1194   1.085       .  S
C1195      C1196   1.408       .  A
C1195      C1200   1.401       .  A
C1196      C1197   1.403       .  A
C1196      H1209   1.083       .  S
C1197      C1198   1.415       .  A
C1197      H1210   1.078       .  S
C1198      C1204   1.439       .  A
C1198      C1199   1.425       .  A
C1199      C1201   1.398       .  A
C1199      C1200   1.407       .  A
C1200      H1211   1.084       .  S
C1201      C1202   1.388       .  A
C1201      H1212   1.084       .  S
C1202      C1203   1.399       .  A
C1202      H1213   1.084       .  S
C1203      C1204   1.422       .  A
C1203      C1208   1.405       .  A
C1204      C1205   1.421       .  A
C1205      C1206   1.408       .  A
C1205      H1214   1.078       .  S
C1206      C1207   1.400       .  A
C1206      H1215   1.083       .  S
C1207      C1208   1.402       .  A
C1208      H1216   1.085       .  S
C1217      C1218   1.405       .  A
C1217      C1222   1.398       .  A
C1218      C1219   1.401       .  A
C1218      H1231   1.083       .  S
C1219      C1220   1.413       .  A
C1219      H1232   1.079       .  S
C1220      C1226   1.435       .  A
C1220      C1221   1.426       .  A
C1221      C1223   1.396       .  A
C1221      C1222   1.405       .  A
C1222      H1233   1.085       .  S
C1223      C1224   1.385       .  A
C1223      H1234   1.084       .  S
C1224      C1225   1.399       .  A
C1224      H1235   1.084       .  S
C1225      C1226   1.419       .  A
C1225      C1230   1.397       .  A
C1226      C1227   1.422       .  A
C1227      C1228   1.411       .  A
C1227      H1236   1.079       .  S
C1228      C1229   1.402       .  A
C1228      H1237   1.083       .  S
C1229      C1230   1.400       .  A
C1230      H1238   1.086       .  S
C1239      C1240   1.402       .  A
C1239      C1244   1.403       .  A
C1240      C1241   1.383       .  A
C1240      H1253   1.083       .  S
C1241      C1242   1.407       .  A
C1241      H1254   1.076       .  S
C1242      C1248   1.423       .  A
C1242      C1243   1.425       .  A
C1243      C1245   1.400       .  A
C1243      C1244   1.409       .  A
C1244      H1255   1.084       .  S
C1245      C1246   1.391       .  A
C1245      H1256   1.084       .  S
C1246      C1247   1.401       .  A
C1246      H1257   1.084       .  S
C1247      C1248   1.418       .  A
C1247      C1252   1.399       .  A
C1248      C1249   1.417       .  A
C1249      C1250   1.392       .  A
C1249      H1258   1.076       .  S
C1250      C1251   1.397       .  A
C1250      H1259   1.084       .  S
C1251      C1252   1.403       .  A
C1252      H1260   1.084       .  S
C1261      C1262   1.398       .  A
C1261      C1266   1.406       .  A
C1262      C1263   1.392       .  A
C1262      H1275   1.083       .  S
C1263      C1264   1.415       .  A
C1263      H1276   1.078       .  S
C1264      C1270   1.423       .  A
C1264      C1265   1.418       .  A
C1265      C1267   1.401       .  A
C1265      C1266   1.402       .  A
C1266      H1277   1.084       .  S
C1267      C1268   1.393       .  A
C1267      H1278   1.084       .  S
C1268      C1269   1.400       .  A
C1268      H1279   1.084       .  S
C1269      C1270   1.424       .  A
C1269      C1274   1.410       .  A
C1270      C1271   1.408       .  A
C1271      C1272   1.386       .  A
C1271      H1280   1.077       .  S
C1272      C1273   1.405       .  A
C1272      H1281   1.083       .  S
C1273      C1274   1.403       .  A
C1274      H1282   1.084       .  S
C1283      C1284   1.398       .  A
C1283      C1288   1.401   1_565  A
C1284      C1285   1.391       .  A
C1284      H1297   1.083       .  S
C1285      C1286   1.414       .  A
C1285      H1298   1.076       .  S
C1286      C1292   1.424       .  A
C1286      C1287   1.422       .  A
C1287      C1289   1.399   1_565  A
C1287      C1288   1.401   1_565  A
C1288      H1299   1.085       .  S
C1289      C1290   1.388   1_545  A
C1289      H1300   1.084       .  S
C1290      C1291   1.399       .  A
C1290      H1301   1.084   1_565  S
C1291      C1292   1.423       .  A
C1291      C1296   1.401       .  A
C1292      C1293   1.413       .  A
C1293      C1294   1.389       .  A
C1293      H1302   1.076       .  S
C1294      C1295   1.399       .  A
C1294      H1303   1.084       .  S
C1295      C1296   1.400       .  A
C1296      H1304   1.085       .  S
C1305      C1306   1.400       .  A
C1305      C1310   1.406       .  A
C1306      C1307   1.402       .  A
C1306      H1319   1.083       .  S
C1307      C1308   1.418       .  A
C1307      H1320   1.078       .  S
C1308      C1314   1.432       .  A
C1308      C1309   1.420       .  A
C1309      C1311   1.401   1_545  A
C1309      C1310   1.403       .  A
C1310      H1321   1.085   1_545  S
C1311      C1312   1.391       .  A
C1311      H1322   1.084       .  S
C1312      C1313   1.400   1_565  A
C1312      H1323   1.084       .  S
C1313      C1314   1.423       .  A
C1313      C1318   1.408       .  A
C1314      C1315   1.414       .  A
C1315      C1316   1.400       .  A
C1315      H1324   1.078       .  S
C1316      C1317   1.400       .  A
C1316      H1325   1.083       .  S
C1317      C1318   1.402       .  A
C1318      H1326   1.085   1_545  S
C1327      C1328   1.400       .  A
C1327      C1332   1.404       .  A
C1328      C1329   1.392       .  A
C1328      H1341   1.083       .  S
C1329      C1330   1.414       .  A
C1329      H1342   1.078       .  S
C1330      C1336   1.421       .  A
C1330      C1331   1.419       .  A
C1331      C1333   1.400       .  A
C1331      C1332   1.399       .  A
C1332      H1343   1.085       .  S
C1333      C1334   1.389       .  A
C1333      H1344   1.084       .  S
C1334      C1335   1.399       .  A
C1334      H1345   1.084       .  S
C1335      C1336   1.423       .  A
C1335      C1340   1.401       .  A
C1336      C1337   1.410       .  A
C1337      C1338   1.387       .  A
C1337      H1346   1.077       .  S
C1338      C1339   1.403       .  A
C1338      H1347   1.083       .  S
C1339      C1340   1.401       .  A
C1340      H1348   1.084       .  S
C1349      C1350   1.400       .  A
C1349      C1354   1.403       .  A
C1350      C1351   1.410       .  A
C1350      H1363   1.083       .  S
C1351      C1352   1.421       .  A
C1351      H1364   1.078       .  S
C1352      C1358   1.438       .  A
C1352      C1353   1.421       .  A
C1353      C1355   1.399       .  A
C1353      C1354   1.401       .  A
C1354      H1365   1.086       .  S
C1355      C1356   1.386       .  A
C1355      H1366   1.084       .  S
C1356      C1357   1.397       .  A
C1356      H1367   1.084       .  S
C1357      C1358   1.425       .  A
C1357      C1362   1.403       .  A
C1358      C1359   1.417       .  A
C1359      C1360   1.405       .  A
C1359      H1368   1.078       .  S
C1360      C1361   1.405       .  A
C1360      H1369   1.083       .  S
C1361      C1362   1.399       .  A
C1362      H1370   1.085       .  S
C1371      C1372   1.399       .  A
C1371      C1376   1.407       .  A
C1372      C1373   1.405       .  A
C1372      H1385   1.083       .  S
C1373      C1374   1.418       .  A
C1373      H1386   1.077       .  S
C1374      C1380   1.436       .  A
C1374      C1375   1.421       .  A
C1375      C1377   1.402       .  A
C1375      C1376   1.408       .  A
C1376      H1387   1.085       .  S
C1377      C1378   1.391       .  A
C1377      H1388   1.084       .  S
C1378      C1379   1.398       .  A
C1378      H1389   1.084       .  S
C1379      C1380   1.425       .  A
C1379      C1384   1.408       .  A
C1380      C1381   1.416       .  A
C1381      C1382   1.401       .  A
C1381      H1390   1.078       .  S
C1382      C1383   1.401       .  A
C1382      H1391   1.084       .  S
C1383      C1384   1.399       .  A
C1384      H1392   1.085       .  S
C1393      C1394   1.400       .  A
C1393      C1398   1.403       .  A
C1394      C1395   1.409       .  A
C1394      H1407   1.083       .  S
C1395      C1396   1.422       .  A
C1395      H1408   1.078       .  S
C1396      C1402   1.436       .  A
C1396      C1397   1.420       .  A
C1397      C1399   1.400       .  A
C1397      C1398   1.402       .  A
C1398      H1409   1.085       .  S
C1399      C1400   1.388       .  A
C1399      H1410   1.084       .  S
C1400      C1401   1.397       .  A
C1400      H1411   1.084       .  S
C1401      C1402   1.427       .  A
C1401      C1406   1.409       .  A
C1402      C1403   1.412       .  A
C1403      C1404   1.399       .  A
C1403      H1412   1.078       .  S
C1404      C1405   1.406       .  A
C1404      H1413   1.084       .  S
C1405      C1406   1.399       .  A
C1406      H1414   1.085       .  S
C1415      C1416   1.403       .  A
C1415      C1420   1.406       .  A
C1416      C1417   1.398       .  A
C1416      H1429   1.083       .  S
C1417      C1418   1.415       .  A
C1417      H1430   1.077       .  S
C1418      C1424   1.436       .  A
C1418      C1419   1.423       .  A
C1419      C1421   1.401       .  A
C1419      C1420   1.413       .  A
C1420      H1431   1.084       .  S
C1421      C1422   1.394       .  A
C1421      H1432   1.084       .  S
C1422      C1423   1.401       .  A
C1422      H1433   1.084       .  S
C1423      C1424   1.424       .  A
C1423      C1428   1.414       .  A
C1424      C1425   1.415       .  A
C1425      C1426   1.399       .  A
C1425      H1434   1.077       .  S
C1426      C1427   1.401       .  A
C1426      H1435   1.084       .  S
C1427      C1428   1.402       .  A
C1428      H1436   1.084       .  S
C1437      C1438   1.405       .  A
C1437      C1442   1.404       .  A
C1438      C1439   1.400       .  A
C1438      H1451   1.084   1_545  S
C1439      C1440   1.414       .  A
C1439      H1452   1.078   1_545  S
C1440      C1446   1.438       .  A
C1440      C1441   1.425       .  A
C1441      C1443   1.401       .  A
C1441      C1442   1.416       .  A
C1442      H1453   1.084       .  S
C1443      C1444   1.394       .  A
C1443      H1454   1.084       .  S
C1444      C1445   1.402       .  A
C1444      H1455   1.084       .  S
C1445      C1446   1.421       .  A
C1445      C1450   1.411       .  A
C1446      C1447   1.418       .  A
C1447      C1448   1.403       .  A
C1447      H1456   1.077   1_545  S
C1448      C1449   1.399       .  A
C1448      H1457   1.084   1_545  S
C1449      C1450   1.406       .  A
C1450      H1458   1.085       .  S
C1459      C1460   1.398       .  A
C1459      C1464   1.397       .  A
C1460      C1461   1.392       .  A
C1460      H1473   1.084       .  S
C1461      C1462   1.413       .  A
C1461      H1474   1.077       .  S
C1462      C1468   1.429       .  A
C1462      C1463   1.425       .  A
C1463      C1465   1.399       .  A
C1463      C1464   1.409       .  A
C1464      H1475   1.085       .  S
C1465      C1466   1.391   1_545  A
C1465      H1476   1.084   1_545  S
C1466      C1467   1.400   1_565  A
C1466      H1477   1.084       .  S
C1467      C1468   1.422       .  A
C1467      C1472   1.407       .  A
C1468      C1469   1.415       .  A
C1469      C1470   1.395       .  A
C1469      H1478   1.077       .  S
C1470      C1471   1.398       .  A
C1470      H1479   1.076       .  S
C1471      C1472   1.401       .  A
C1472      H1480   1.084   1_545  S
C1481      C1482   1.403       .  A
C1481      C1486   1.400       .  A
C1482      C1483   1.399       .  A
C1482      H1495   1.083       .  S
C1483      C1484   1.415       .  A
C1483      H1496   1.078       .  S
C1484      C1490   1.433       .  A
C1484      C1485   1.424       .  A
C1485      C1487   1.398       .  A
C1485      C1486   1.403       .  A
C1486      H1497   1.085       .  S
C1487      C1488   1.387       .  A
C1487      H1498   1.084       .  S
C1488      C1489   1.399       .  A
C1488      H1499   1.084       .  S
C1489      C1490   1.421       .  A
C1489      C1494   1.401       .  A
C1490      C1491   1.420       .  A
C1491      C1492   1.405       .  A
C1491      H1500   1.078       .  S
C1492      C1493   1.399       .  A
C1492      H1501   1.083       .  S
C1493      C1494   1.402       .  A
C1494      H1502   1.085       .  S
C1503      C1504   1.398       .  A
C1503      C1508   1.403       .  A
C1504      C1505   1.406       .  A
C1504      H1517   1.083       .  S
C1505      C1506   1.421       .  A
C1505      H1518   1.078       .  S
C1506      C1512   1.436       .  A
C1506      C1507   1.420       .  A
C1507      C1509   1.400       .  A
C1507      C1508   1.404       .  A
C1508      H1519   1.085       .  S
C1509      C1510   1.391       .  A
C1509      H1520   1.084       .  S
C1510      C1511   1.398       .  A
C1510      H1521   1.084       .  S
C1511      C1512   1.426       .  A
C1511      C1516   1.414       .  A
C1512      C1513   1.409       .  A
C1513      C1514   1.397       .  A
C1513      H1522   1.078       .  S
C1514      C1515   1.412       .  A
C1514      H1523   1.083       .  S
C1515      C1516   1.401       .  A
C1516      H1524   1.084       .  S
C1525      C1526   1.399       .  A
C1525      C1530   1.402       .  A
C1526      C1527   1.390       .  A
C1526      H1539   1.083       .  S
C1527      C1528   1.414       .  A
C1527      H1540   1.077       .  S
C1528      C1534   1.421       .  A
C1528      C1529   1.420       .  A
C1529      C1531   1.399       .  A
C1529      C1530   1.399       .  A
C1530      H1541   1.084       .  S
C1531      C1532   1.389       .  A
C1531      H1542   1.084       .  S
C1532      C1533   1.399       .  A
C1532      H1543   1.084       .  S
C1533      C1534   1.422       .  A
C1533      C1538   1.403       .  A
C1534      C1535   1.410       .  A
C1535      C1536   1.388       .  A
C1535      H1544   1.077       .  S
C1536      C1537   1.401       .  A
C1536      H1545   1.083       .  S
C1537      C1538   1.402       .  A
C1538      H1546   1.084       .  S
C1547      C1548   1.400       .  A
C1547      C1552   1.396       .  A
C1548      C1549   1.386       .  A
C1548      H1561   1.084       .  S
C1549      C1550   1.409       .  A
C1549      H1562   1.077       .  S
C1550      C1556   1.422       .  A
C1550      C1551   1.425       .  A
C1551      C1553   1.397       .  A
C1551      C1552   1.404       .  A
C1552      H1563   1.085       .  S
C1553      C1554   1.388       .  A
C1553      H1564   1.084       .  S
C1554      C1555   1.401       .  A
C1554      H1565   1.084       .  S
C1555      C1556   1.418       .  A
C1555      C1560   1.396       .  A
C1556      C1557   1.418       .  A
C1557      C1558   1.394       .  A
C1557      H1566   1.077       .  S
C1558      C1559   1.395       .  A
C1558      H1567   1.083       .  S
C1559      C1560   1.404       .  A
C1560      H1568   1.085       .  S
C1569      C1570   1.404       .  A
C1569      C1574   1.400       .  A
C1570      C1571   1.388       .  A
C1570      H1583   1.083       .  S
C1571      C1572   1.410       .  A
C1571      H1584   1.078       .  S
C1572      C1578   1.418       .  A
C1572      C1573   1.422       .  A
C1573      C1575   1.399       .  A
C1573      C1574   1.398       .  A
C1574      H1585   1.084       .  S
C1575      C1576   1.388       .  A
C1575      H1586   1.084       .  S
C1576      C1577   1.399       .  A
C1576      H1587   1.084       .  S
C1577      C1578   1.420       .  A
C1577      C1582   1.400       .  A
C1578      C1579   1.414       .  A
C1579      C1580   1.396       .  A
C1579      H1588   1.079       .  S
C1580      C1581   1.403       .  A
C1580      H1589   1.083       .  S
C1581      C1582   1.404       .  A
C1582      H1590   1.085       .  S
C1591      C1592   1.406       .  A
C1591      C1596   1.398       .  A
C1592      C1593   1.393       .  A
C1592      H1605   1.083       .  S
C1593      C1594   1.409       .  A
C1593      H1606   1.078       .  S
C1594      C1600   1.427       .  A
C1594      C1595   1.425       .  A
C1595      C1597   1.396       .  A
C1595      C1596   1.402       .  A
C1596      H1607   1.085       .  S
C1597      C1598   1.386       .  A
C1597      H1608   1.084       .  S
C1598      C1599   1.401       .  A
C1598      H1609   1.084       .  S
C1599      C1600   1.416       .  A
C1599      C1604   1.394       .  A
C1600      C1601   1.420       .  A
C1601      C1602   1.403       .  A
C1601      H1610   1.078       .  S
C1602      C1603   1.398       .  A
C1602      H1611   1.083       .  S
C1603      C1604   1.408       .  A
C1604      H1612   1.083       .  S
C1613      C1614   1.402       .  A
C1613      C1618   1.402       .  A
C1614      C1615   1.399       .  A
C1614      H1627   1.084       .  S
C1615      C1616   1.413       .  A
C1615      H1628   1.079       .  S
C1616      C1622   1.431       .  A
C1616      C1617   1.422       .  A
C1617      C1619   1.400   1_655  A
C1617      C1618   1.409       .  A
C1618      H1629   1.085   1_655  S
C1619      C1620   1.392       .  A
C1619      H1630   1.084       .  S
C1620      C1621   1.400   1_455  A
C1620      H1631   1.084       .  S
C1621      C1622   1.422       .  A
C1621      C1626   1.405       .  A
C1622      C1623   1.416       .  A
C1623      C1624   1.400       .  A
C1623      H1632   1.079       .  S
C1624      C1625   1.400       .  A
C1624      H1633   1.083       .  S
C1625      C1626   1.400       .  A
C1626      H1634   1.085   1_655  S
C1635      C1636   1.405       .  A
C1635      C1640   1.404       .  A
C1636      C1637   1.405       .  A
C1636      H1649   1.083       .  S
C1637      C1638   1.416       .  A
C1637      H1650   1.078       .  S
C1638      C1644   1.438       .  A
C1638      C1639   1.424       .  A
C1639      C1641   1.399       .  A
C1639      C1640   1.408       .  A
C1640      H1651   1.084       .  S
C1641      C1642   1.389       .  A
C1641      H1652   1.084       .  S
C1642      C1643   1.400       .  A
C1642      H1653   1.084       .  S
C1643      C1644   1.421       .  A
C1643      C1648   1.404       .  A
C1644      C1645   1.420       .  A
C1645      C1646   1.409       .  A
C1645      H1654   1.078       .  S
C1646      C1647   1.401       .  A
C1646      H1655   1.083       .  S
C1647      C1648   1.404       .  A
C1648      H1656   1.085       .  S
C1657      C1658   1.403       .  A
C1657      C1662   1.408       .  A
C1658      C1659   1.403       .  A
C1658      H1671   1.083       .  S
C1659      C1660   1.418       .  A
C1659      H1672   1.077       .  S
C1660      C1666   1.437       .  A
C1660      C1661   1.421       .  A
C1661      C1663   1.401       .  A
C1661      C1662   1.408       .  A
C1662      H1673   1.084       .  S
C1663      C1664   1.392       .  A
C1663      H1674   1.084       .  S
C1664      C1665   1.399       .  A
C1664      H1675   1.084       .  S
C1665      C1666   1.426       .  A
C1665      C1670   1.414       .  A
C1666      C1667   1.414       .  A
C1667      C1668   1.399       .  A
C1667      H1676   1.078       .  S
C1668      C1669   1.402       .  A
C1668      H1677   1.084       .  S
C1669      C1670   1.400       .  A
C1670      H1678   1.084       .  S
C1679      C1680   1.403       .  A
C1679      C1684   1.405       .  A
C1680      C1681   1.408       .  A
C1680      H1693   1.083       .  S
C1681      C1682   1.420       .  A
C1681      H1694   1.078       .  S
C1682      C1688   1.439       .  A
C1682      C1683   1.422       .  A
C1683      C1685   1.400   1_655  A
C1683      C1684   1.407       .  A
C1684      H1695   1.085   1_655  S
C1685      C1686   1.390       .  A
C1685      H1696   1.084       .  S
C1686      C1687   1.399   1_455  A
C1686      H1697   1.084       .  S
C1687      C1688   1.424       .  A
C1687      C1692   1.409       .  A
C1688      C1689   1.416       .  A
C1689      C1690   1.405       .  A
C1689      H1698   1.078       .  S
C1690      C1691   1.403       .  A
C1690      H1699   1.084       .  S
C1691      C1692   1.401       .  A
C1692      H1700   1.085   1_655  S
C1701      C1702   1.402   1_655  A
C1701      C1706   1.397       .  A
C1702      C1703   1.405       .  A
C1702      H1715   1.083       .  S
C1703      C1704   1.417   1_455  A
C1703      H1716   1.078       .  S
C1704      C1710   1.438       .  A
C1704      C1705   1.425       .  A
C1705      C1707   1.397       .  A
C1705      C1706   1.404       .  A
C1706      H1717   1.085       .  S
C1707      C1708   1.387       .  A
C1707      H1718   1.084       .  S
C1708      C1709   1.400       .  A
C1708      H1719   1.084       .  S
C1709      C1710   1.421       .  A
C1709      C1714   1.402       .  A
C1710      C1711   1.421       .  A
C1711      C1712   1.410       .  A
C1711      H1720   1.078   1_655  S
C1712      C1713   1.401       .  A
C1712      H1721   1.083   1_655  S
C1713      C1714   1.403       .  A
C1714      H1722   1.086       .  S
C1723      C1724   1.402       .  A
C1723      C1728   1.405   1_655  A
C1724      C1725   1.410       .  A
C1724      H1737   1.083       .  S
C1725      C1726   1.420       .  A
C1725      H1738   1.078       .  S
C1726      C1732   1.437       .  A
C1726      C1727   1.421   1_655  A
C1727      C1729   1.400       .  A
C1727      C1728   1.403       .  A
C1728      H1739   1.085       .  S
C1729      C1730   1.387       .  A
C1729      H1740   1.084       .  S
C1730      C1731   1.397       .  A
C1730      H1741   1.084       .  S
C1731      C1732   1.425   1_455  A
C1731      C1736   1.404       .  A
C1732      C1733   1.416       .  A
C1733      C1734   1.403       .  A
C1733      H1742   1.078       .  S
C1734      C1735   1.402       .  A
C1734      H1743   1.084       .  S
C1735      C1736   1.397   1_655  A
C1736      H1744   1.085       .  S
C1745      C1746   1.403       .  A
C1745      C1750   1.403       .  A
C1746      C1747   1.407       .  A
C1746      H1759   1.083       .  S
C1747      C1748   1.418       .  A
C1747      H1760   1.078       .  S
C1748      C1754   1.439       .  A
C1748      C1749   1.424       .  A
C1749      C1751   1.399       .  A
C1749      C1750   1.407       .  A
C1750      H1761   1.083       .  S
C1751      C1752   1.389       .  A
C1751      H1762   1.084       .  S
C1752      C1753   1.400       .  A
C1752      H1763   1.084       .  S
C1753      C1754   1.422       .  A
C1753      C1758   1.404       .  A
C1754      C1755   1.421       .  A
C1755      C1756   1.409       .  A
C1755      H1764   1.078       .  S
C1756      C1757   1.400       .  A
C1756      H1765   1.083       .  S
C1757      C1758   1.403       .  A
C1758      H1766   1.085       .  S
C1767      C1768   1.405       .  A
C1767      C1772   1.408       .  A
C1768      C1769   1.410       .  A
C1768      H1781   1.083       .  S
C1769      C1770   1.420       .  A
C1769      H1782   1.078       .  S
C1770      C1776   1.441       .  A
C1770      C1771   1.421       .  A
C1771      C1773   1.400       .  A
C1771      C1772   1.406       .  A
C1772      H1783   1.084       .  S
C1773      C1774   1.389       .  A
C1773      H1784   1.084       .  S
C1774      C1775   1.398       .  A
C1774      H1785   1.084       .  S
C1775      C1776   1.425       .  A
C1775      C1780   1.410       .  A
C1776      C1777   1.416       .  A
C1777      C1778   1.406       .  A
C1777      H1786   1.078       .  S
C1778      C1779   1.404       .  A
C1778      H1787   1.084       .  S
C1779      C1780   1.400       .  A
C1780      H1788   1.085       .  S
C1789      C1790   1.401       .  A
C1789      C1794   1.403       .  A
C1790      C1791   1.403       .  A
C1790      H1803   1.084       .  S
C1791      C1792   1.418       .  A
C1791      H1804   1.079       .  S
C1792      C1798   1.432       .  A
C1792      C1793   1.421       .  A
C1793      C1795   1.400       .  A
C1793      C1794   1.403       .  A
C1794      H1805   1.085       .  S
C1795      C1796   1.391       .  A
C1795      H1806   1.084       .  S
C1796      C1797   1.399       .  A
C1796      H1807   1.084       .  S
C1797      C1798   1.422       .  A
C1797      C1802   1.408       .  A
C1798      C1799   1.413       .  A
C1799      C1800   1.400       .  A
C1799      H1808   1.079       .  S
C1800      C1801   1.401       .  A
C1800      H1809   1.084       .  S
C1801      C1802   1.402       .  A
C1802      H1810   1.085       .  S
C1811      C1812   1.401       .  A
C1811      C1816   1.405       .  A
C1812      C1813   1.396       .  A
C1812      H1825   1.084       .  S
C1813      C1814   1.416       .  A
C1813      H1826   1.077       .  S
C1814      C1820   1.435       .  A
C1814      C1815   1.422       .  A
C1815      C1817   1.402       .  A
C1815      C1816   1.414       .  A
C1816      H1827   1.084       .  S
C1817      C1818   1.397       .  A
C1817      H1828   1.084       .  S
C1818      C1819   1.402       .  A
C1818      H1829   1.083       .  S
C1819      C1820   1.425       .  A
C1819      C1824   1.421       .  A
C1820      C1821   1.412       .  A
C1821      C1822   1.394       .  A
C1821      H1830   1.077       .  S
C1822      C1823   1.401       .  A
C1822      H1831   1.084       .  S
C1823      C1824   1.406       .  A
C1824      H1832   1.084       .  S
C1833      C1834   1.401       .  A
C1833      C1838   1.399       .  A
C1834      C1835   1.397       .  A
C1834      H1847   1.084       .  S
C1835      C1836   1.412       .  A
C1835      H1848   1.079       .  S
C1836      C1842   1.433       .  A
C1836      C1837   1.424       .  A
C1837      C1839   1.399       .  A
C1837      C1838   1.410       .  A
C1838      H1849   1.085       .  S
C1839      C1840   1.391       .  A
C1839      H1850   1.084       .  S
C1840      C1841   1.401       .  A
C1840      H1851   1.084       .  S
C1841      C1842   1.421       .  A
C1841      C1846   1.407       .  A
C1842      C1843   1.417       .  A
C1843      C1844   1.403       .  A
C1843      H1852   1.079       .  S
C1844      C1845   1.403       .  A
C1844      H1853   1.081       .  S
C1845      C1846   1.404       .  A
C1846      H1854   1.084       .  S
C1855      C1856   1.401       .  A
C1855      C1860   1.407       .  A
C1856      C1857   1.398       .  A
C1856      H1869   1.083       .  S
C1857      C1858   1.416       .  A
C1857      H1870   1.077       .  S
C1858      C1864   1.432       .  A
C1858      C1859   1.421       .  A
C1859      C1861   1.401       .  A
C1859      C1860   1.406       .  A
C1860      H1871   1.084       .  S
C1861      C1862   1.391       .  A
C1861      H1872   1.084       .  S
C1862      C1863   1.399       .  A
C1862      H1873   1.084       .  S
C1863      C1864   1.425       .  A
C1863      C1868   1.409       .  A
C1864      C1865   1.414       .  A
C1865      C1866   1.396       .  A
C1865      H1874   1.077       .  S
C1866      C1867   1.399       .  A
C1866      H1875   1.084       .  S
C1867      C1868   1.398       .  A
C1868      H1876   1.085       .  S
C1877      C1878   1.396       .  A
C1877      C1882   1.399       .  A
C1878      C1879   1.393       .  A
C1878      H1891   1.084       .  S
C1879      C1880   1.414       .  A
C1879      H1892   1.077       .  S
C1880      C1886   1.429       .  A
C1880      C1881   1.425       .  A
C1881      C1883   1.399       .  A
C1881      C1882   1.406       .  A
C1882      H1893   1.085       .  S
C1883      C1884   1.391       .  A
C1883      H1894   1.084       .  S
C1884      C1885   1.401       .  A
C1884      H1895   1.084       .  S
C1885      C1886   1.421       .  A
C1885      C1890   1.405       .  A
C1886      C1887   1.417       .  A
C1887      C1888   1.397       .  A
C1887      H1896   1.077       .  S
C1888      C1889   1.395       .  A
C1888      H1897   1.084       .  S
C1889      C1890   1.400       .  A
C1890      H1898   1.085       .  S
C1899      C1900   1.402       .  A
C1899      C1904   1.408       .  A
C1900      C1901   1.398       .  A
C1900      H1913   1.083       .  S
C1901      C1902   1.415       .  A
C1901      H1914   1.077       .  S
C1902      C1908   1.435       .  A
C1902      C1903   1.422       .  A
C1903      C1905   1.402       .  A
C1903      C1904   1.413       .  A
C1904      H1915   1.084       .  S
C1905      C1906   1.394       .  A
C1905      H1916   1.084       .  S
C1906      C1907   1.401       .  A
C1906      H1917   1.084       .  S
C1907      C1908   1.424       .  A
C1907      C1912   1.413       .  A
C1908      C1909   1.415       .  A
C1909      C1910   1.397       .  A
C1909      H1918   1.077       .  S
C1910      C1911   1.399       .  A
C1910      H1919   1.084       .  S
C1911      C1912   1.401       .  A
C1912      H1920   1.084       .  S
C1921      C1922   1.396   1_655  A
C1921      C1926   1.403       .  A
C1922      C1923   1.395       .  A
C1922      H1935   1.083       .  S
C1923      C1924   1.418       .  A
C1923      H1936   1.076       .  S
C1924      C1930   1.425       .  A
C1924      C1925   1.419   1_455  A
C1925      C1927   1.401       .  A
C1925      C1926   1.400       .  A
C1926      H1937   1.085       .  S
C1927      C1928   1.390       .  A
C1927      H1938   1.084       .  S
C1928      C1929   1.399   1_655  A
C1928      H1939   1.084       .  S
C1929      C1930   1.426       .  A
C1929      C1934   1.408       .  A
C1930      C1931   1.409       .  A
C1931      C1932   1.387       .  A
C1931      H1940   1.077       .  S
C1932      C1933   1.402       .  A
C1932      H1941   1.082       .  S
C1933      C1934   1.399       .  A
C1934      H1942   1.084   1_455  S
C1943      C1944   1.400       .  A
C1943      C1948   1.405       .  A
C1944      C1945   1.402       .  A
C1944      H1957   1.083       .  S
C1945      C1946   1.419       .  A
C1945      H1958   1.078       .  S
C1946      C1952   1.424       .  A
C1946      C1947   1.417       .  A
C1947      C1949   1.400       .  A
C1947      C1948   1.391       .  A
C1948      H1959   1.084       .  S
C1949      C1950   1.385       .  A
C1949      H1960   1.084       .  S
C1950      C1951   1.396       .  A
C1950      H1961   1.084       .  S
C1951      C1952   1.423       .  A
C1951      C1956   1.400       .  A
C1952      C1953   1.410       .  A
C1953      C1954   1.394       .  A
C1953      H1962   1.079       .  S
C1954      C1955   1.405       .  A
C1954      H1963   1.083       .  S
C1955      C1956   1.400       .  A
C1956      H1964   1.085       .  S
C1965      C1966   1.401       .  A
C1965      C1970   1.402       .  A
C1966      C1967   1.400       .  A
C1966      H1979   1.083       .  S
C1967      C1968   1.417       .  A
C1967      H1980   1.078       .  S
C1968      C1974   1.429       .  A
C1968      C1969   1.420       .  A
C1969      C1971   1.398   1_455  A
C1969      C1970   1.397       .  A
C1970      H1981   1.084       .  S
C1971      C1972   1.385       .  A
C1971      H1982   1.084       .  S
C1972      C1973   1.397       .  A
C1972      H1983   1.084       .  S
C1973      C1974   1.424   1_655  A
C1973      C1978   1.401       .  A
C1974      C1975   1.413       .  A
C1975      C1976   1.396       .  A
C1975      H1984   1.077       .  S
C1976      C1977   1.402   1_455  A
C1976      H1985   1.083       .  S
C1977      C1978   1.397       .  A
C1978      H1986   1.085       .  S
C1987      C1988   1.398       .  A
C1987      C1992   1.404       .  A
C1988      C1989   1.406       .  A
C1988      H2001   1.083       .  S
C1989      C1990   1.421       .  A
C1989      H2002   1.078       .  S
C1990      C1996   1.435       .  A
C1990      C1991   1.420       .  A
C1991      C1993   1.400       .  A
C1991      C1992   1.403       .  A
C1992      H2003   1.085   1_655  S
C1993      C1994   1.390       .  A
C1993      H2004   1.084       .  S
C1994      C1995   1.399       .  A
C1994      H2005   1.084       .  S
C1995      C1996   1.425       .  A
C1995      C2000   1.410       .  A
C1996      C1997   1.412       .  A
C1997      C1998   1.399       .  A
C1997      H2006   1.078       .  S
C1998      C1999   1.407       .  A
C1998      H2007   1.083       .  S
C1999      C2000   1.403       .  A
C2000      H2008   1.084       .  S
C2009      C2010   1.400       .  A
C2009      C2014   1.401   1_655  A
C2010      C2011   1.404       .  A
C2010      H2023   1.083       .  S
C2011      C2012   1.417       .  A
C2011      H2024   1.078       .  S
C2012      C2018   1.437       .  A
C2012      C2013   1.424   1_655  A
C2013      C2015   1.398       .  A
C2013      C2014   1.405       .  A
C2014      H2025   1.085       .  S
C2015      C2016   1.388       .  A
C2015      H2026   1.084       .  S
C2016      C2017   1.399   1_455  A
C2016      H2027   1.084       .  S
C2017      C2018   1.421       .  A
C2017      C2022   1.402       .  A
C2018      C2019   1.421       .  A
C2019      C2020   1.408       .  A
C2019      H2028   1.078       .  S
C2020      C2021   1.401       .  A
C2020      H2029   1.083       .  S
C2021      C2022   1.402       .  A
C2022      H2030   1.085   1_655  S
C2031      C2032   1.403       .  A
C2031      C2036   1.402       .  A
C2032      C2033   1.396       .  A
C2032      H2045   1.083       .  S
C2033      C2034   1.412       .  A
C2033      H2046   1.079       .  S
C2034      C2040   1.423       .  A
C2034      C2035   1.421       .  A
C2035      C2037   1.398       .  A
C2035      C2036   1.399       .  A
C2036      H2047   1.085       .  S
C2037      C2038   1.387       .  A
C2037      H2048   1.084       .  S
C2038      C2039   1.400       .  A
C2038      H2049   1.084       .  S
C2039      C2040   1.420       .  A
C2039      C2044   1.397       .  A
C2040      C2041   1.415       .  A
C2041      C2042   1.398       .  A
C2041      H2050   1.078       .  S
C2042      C2043   1.402       .  A
C2042      H2051   1.083       .  S
C2043      C2044   1.403       .  A
C2044      H2052   1.084       .  S
