geometry optimzed in LAMMPS
_audit_creation_date              2020-11-30 
_audit_creation_method            'lammps2cif' 
_symmetry_space_group_name_H-M    'P1' 
_symmetry_Int_Tables_number       1 
_symmetry_cell_setting            triclinic 
loop_ 
_symmetry_equiv_pos_as_xyz 
  x,y,z 
_cell_length_a                    53.37252916964692 
_cell_length_b                    25.510147099944543 
_cell_length_c                    33.94171457022557 
_cell_angle_alpha                 90.34007939049701 
_cell_angle_beta                  90.08304987898994 
_cell_angle_gamma                 90.15690820892668 
loop_ 
_atom_site_label 
_atom_site_type_symbol 
_atom_site_fract_x 
_atom_site_fract_y 
_atom_site_fract_z 
_atom_site_charge 
O1          O  0.47315300  0.03845824  0.38728082    -0.88130
C2          C  0.03776774  0.82350034  0.00900544     1.11910
O3          O  0.00174858  0.02804643  0.46547897    -1.35930
O4          O  0.47436807  0.83664931  0.47372154    -0.89610
O5          O  0.47545034  0.11497531  0.41918369    -0.90280
O6          O  0.44851513  0.06009459  0.50475974    -0.79100
O7          O  0.47867303  0.93731669  0.42924456    -1.01190
C8          C  0.45455417  0.94475492  0.07817977     1.21960
O9          O  0.50081596  0.03037098  0.04672432    -1.36080
Mn10       Mn  0.02880257  0.99698396  0.00722277     1.82060
O11         O  0.44690784  0.96580524  0.04701589    -0.78170
O12         O  0.47251077  0.84028282  0.03961870    -0.87570
C13         C  0.04585613  0.94636019  0.08170497     1.13040
C14         C  0.46505579  0.82248649  0.00652686     1.07770
O15         O  0.05473795  0.05945074  0.00731061    -0.79110
O16         O  0.00120678  0.93458430  0.00665961    -1.32810
O17         O  0.02530456  0.11440388  0.00621807    -0.98320
C18         C  0.46333086  0.09193759  0.11541387     1.06480
Mn19       Mn  0.50044333  0.89160629  0.05956013     1.48570
O20         O  0.47343647  0.12049518  0.08967384    -0.87520
Mn21       Mn  0.00243140  0.11118642  0.46225280     1.49560
O22         O  0.02998976  0.03920542  0.38647676    -0.91400
C23         C  0.45605768  0.94140518  0.43263860     1.19670
C24         C  0.03922515  0.08395005  0.39479658     1.11730
Mn25       Mn  0.47365698  0.99692431  0.50563828     1.80970
O26         O  0.02327155  0.94237552  0.08422147    -0.96550
Mn27       Mn  0.50186835  0.99052079  0.40968302     1.49260
C28         C  0.46543442  0.08489381  0.39395587     1.08250
Mn29       Mn  0.99987064  0.99589260  0.10273070     1.49930
C30         C  0.03789747  0.08875413  0.11761133     1.11160
O31         O  0.47791368  0.11660935  0.50453602    -1.02350
O32         O  0.02849778  0.83914326  0.04157095    -0.92010
C33         C  0.45546168  0.10712006  0.50406255     1.22440
O34         O  0.47709036  0.94237546  0.08215078    -1.02740
O35         O  0.03030873  0.83957587  0.47557798    -0.90140
O36         O  0.02849318  0.04421404  0.12589727    -0.89750
O37         O  0.03114127  0.11342795  0.42187593    -0.89770
Mn38       Mn  0.00213121  0.88879583  0.45444883     1.47860
O39         O  0.05415785  0.96636039  0.05051524    -0.78240
C40         C  0.04770860  0.10621645  0.00713481     1.15490
O41         O  0.44823337  0.96420437  0.46318797    -0.76980
O42         O  0.05486180  0.96560833  0.46610228    -0.76590
Mn43       Mn  0.50136443  0.11376527  0.04861329     1.51060
O44         O  0.47097522  0.04579162  0.12341884    -0.88940
O45         O  0.02548825  0.93810694  0.42941533    -0.96470
O46         O  0.02915895  0.11797990  0.09099659    -0.91480
C47         C  0.04791682  0.94347776  0.43474861     1.13280
C48         C  0.11453369  0.28395298  0.50537841     0.03180
C49         C  0.12300207  0.30492740  0.46954072    -0.12970
C50         C  0.13825428  0.34980866  0.46968021     0.00680
C51         C  0.14516162  0.37258370  0.50555179    -0.11490
C52         C  0.13769203  0.35106871  0.04136403     0.03170
C53         C  0.12200725  0.30698016  0.04128292    -0.10910
H54         H  0.11805334  0.28609690  0.44189037     0.08770
H55         H  0.15875929  0.40426698  0.50562153     0.06300
H56         H  0.11644885  0.28940858  0.06894048     0.06140
C57         C  0.38887096  0.28552346  0.50471035     0.03180
C58         C  0.38041261  0.30527434  0.04122965    -0.12970
C59         C  0.36431765  0.34864166  0.04243773     0.00680
C60         C  0.35620433  0.37065263  0.50729109    -0.11490
C61         C  0.36383237  0.35126637  0.47071218     0.03170
C62         C  0.38058116  0.30890490  0.46943852    -0.10910
H63         H  0.38608419  0.28671563  0.06844931     0.08770
H64         H  0.34190234  0.40072016  0.50849839     0.06300
H65         H  0.38642280  0.29295950  0.44127423     0.06140
C66         C  0.38632485  0.66536378  0.00563083     0.03180
C67         C  0.37527729  0.65066303  0.96950807    -0.12970
C68         C  0.35397623  0.61850638  0.96848607     0.00680
C69         C  0.34396886  0.59996490  0.00415844    -0.11490
C70         C  0.35402612  0.61579668  0.04076155     0.03170
C71         C  0.37562828  0.64739658  0.04112598    -0.10910
H72         H  0.38222146  0.66700032  0.44223284     0.08770
H73         H  0.32746912  0.57514062  0.00340793     0.06300
H74         H  0.38339016  0.66009830  0.06911497     0.06140
C75         C  0.11459313  0.66299719  0.00551387     0.03180
C76         C  0.12427340  0.64422712  0.46939209    -0.12970
C77         C  0.14440392  0.60891689  0.46867463     0.00680
C78         C  0.15350100  0.58924403  0.00460475    -0.11490
C79         C  0.14439093  0.60779237  0.04103348     0.03170
C80         C  0.12476754  0.64430195  0.04111598    -0.10910
H81         H  0.11703579  0.65903139  0.44180856     0.08770
H82         H  0.16896035  0.56179160  0.00424584     0.06300
H83         H  0.11858268  0.66095376  0.06885868     0.06140
O84         O  0.22314329  0.39336807  0.17141226    -0.88130
C85         C  0.28834821  0.42938137  0.36754856     1.11910
O86         O  0.25076931  0.48227379  0.21480187    -1.35930
O87         O  0.22347499  0.39656648  0.34138817    -0.89610
O88         O  0.22317072  0.46698703  0.13629795    -0.90280
O89         O  0.19676869  0.54354116  0.21206754    -0.79100
O90         O  0.22755430  0.39547605  0.25645545    -1.01190
C91         C  0.20387847  0.56722906  0.32783567     1.21960
O92         O  0.24983742  0.57764397  0.25475236    -1.36080
Mn93       Mn  0.27779294  0.51673370  0.25524104     1.82060
O94         O  0.19659626  0.54549427  0.29645856    -0.78170
O95         O  0.22168150  0.47224509  0.37438808    -0.87570
C96         C  0.29571844  0.57059751  0.32825830     1.13040
C97         C  0.21365149  0.42617733  0.36697073     1.07770
O98         O  0.30369671  0.54833949  0.21335697    -0.79110
O99         O  0.25050707  0.48403559  0.29611565    -1.32810
O100        O  0.27353605  0.57203159  0.17788537    -0.98320
C101        C  0.21268090  0.68696319  0.25402603     1.06480
Mn102      Mn  0.25006383  0.52107662  0.35196263     1.48570
O103        O  0.22041456  0.66977554  0.22095736    -0.87520
Mn104      Mn  0.25109378  0.51701219  0.15863460     1.49560
O105        O  0.27924779  0.39471572  0.17137528    -0.91400
C106        C  0.20506219  0.40401066  0.25614282     1.19670
C107        C  0.28896429  0.42394398  0.14559717     1.11730
Mn108      Mn  0.22282570  0.51433368  0.25483841     1.80970
O109        O  0.27314168  0.57415291  0.33227497    -0.96550
Mn110      Mn  0.25126888  0.39883516  0.21310045     1.49260
C111        C  0.21412822  0.42226774  0.14480374     1.08250
Mn112      Mn  0.24973017  0.62260650  0.30718457     1.49930
C113        C  0.28567373  0.68933116  0.25424077     1.11160
O114        O  0.22709046  0.56873397  0.17762836    -1.02350
O115        O  0.27895925  0.47419068  0.37504873    -0.92010
C116        C  0.20456503  0.56352941  0.18058046     1.22440
O117        O  0.22640164  0.57289508  0.33190674    -1.02740
O118        O  0.27943496  0.39893091  0.34152492    -0.90140
O119        O  0.27785966  0.67280161  0.28729192    -0.89750
O120        O  0.28047354  0.46930529  0.13747842    -0.89770
Mn121      Mn  0.25135180  0.40076839  0.29967033     1.47860
O122        O  0.30336476  0.54963621  0.29696417    -0.78240
C123        C  0.29609963  0.56879990  0.18196424     1.15490
O124        O  0.19789855  0.45068672  0.25486491    -0.76980
O125        O  0.30358725  0.45582475  0.25556006    -0.76590
Mn126      Mn  0.24940419  0.62077724  0.20183569     1.51060
O127        O  0.22192888  0.67325927  0.28695059    -0.88940
O128        O  0.27515099  0.39736530  0.25651322    -0.96470
O129        O  0.27654775  0.67460991  0.22129655    -0.91480
C130        C  0.29740227  0.40856189  0.25660296     1.13280
C131        C  0.13934956  0.22413525  0.25535600     0.03180
C132        C  0.13229217  0.20162829  0.21894486    -0.12970
C133        C  0.11694062  0.15681560  0.21804331     0.00680
C134        C  0.10916894  0.13481936  0.25347854    -0.11490
C135        C  0.11337859  0.16051129  0.28920554     0.03170
C136        C  0.12931477  0.20412032  0.29056053    -0.10910
H137        H  0.13806485  0.21971836  0.19159850     0.08770
H138        H  0.09604564  0.10225047  0.25295194     0.06300
H139        H  0.13247461  0.22450108  0.31824070     0.06140
C140        C  0.36594799  0.84246923  0.25506297     0.03180
C141        C  0.37690585  0.85779509  0.21921023    -0.12970
C142        C  0.39814102  0.89020398  0.21870720     0.00680
C143        C  0.40812956  0.90818293  0.25486412    -0.11490
C144        C  0.39832745  0.89114437  0.29116104     0.03170
C145        C  0.37677587  0.85949220  0.29089091    -0.10910
H146        H  0.36984225  0.84190146  0.19167902     0.08770
H147        H  0.42433865  0.93381954  0.25476271     0.06300
H148        H  0.36906355  0.84624640  0.31861950     0.06140
C149        C  0.13492485  0.84459628  0.25690076     0.03180
C150        C  0.12455499  0.86390811  0.22169228    -0.12970
C151        C  0.10428745  0.89896896  0.22245377     0.00680
C152        C  0.09495098  0.91588312  0.25931643    -0.11490
C153        C  0.10490766  0.89639535  0.29462518     0.03170
C154        C  0.12470684  0.86064226  0.29317228    -0.10910
H155        H  0.13153478  0.84966641  0.19369200     0.08770
H156        H  0.07904287  0.94215084  0.26057094     0.06300
H157        H  0.13136176  0.84355283  0.32037431     0.06140
C158        C  0.36765494  0.23877346  0.25886578     0.03180
C159        C  0.37613415  0.22046603  0.22209712    -0.12970
C160        C  0.39231779  0.17761736  0.22030778     0.00680
C161        C  0.40015116  0.15381224  0.25497851    -0.11490
C162        C  0.39248569  0.17235210  0.29171294     0.03170
C163        C  0.37595381  0.21482691  0.29376282    -0.10910
H164        H  0.37021181  0.23943269  0.19516262     0.08770
H165        H  0.41391019  0.12262228  0.25334308     0.06300
H166        H  0.37008451  0.22996536  0.32217626     0.06140
C167        C  0.15510438  0.80451264  0.25584872    -0.05410
C168        C  0.15340110  0.76185760  0.22946832    -0.32840
C169        C  0.17192720  0.72308527  0.22855087     0.36410
C170        C  0.19249979  0.72631459  0.25446402    -0.05770
C171        C  0.19418607  0.76865096  0.28087300    -0.32740
C172        C  0.17585217  0.80772309  0.28155125     0.36310
H173        H  0.13744972  0.75808051  0.20987725     0.16680
O174        O  0.16954449  0.68189570  0.20264608    -0.60240
H175        H  0.21014883  0.77218544  0.30049493     0.16700
O176        O  0.17905311  0.85030672  0.30596734    -0.60340
H177        H  0.17681895  0.83682888  0.33309640     0.43690
H178        H  0.16087668  0.65397414  0.21764428     0.43650
C179        C  0.30628559  0.72799542  0.25426496    -0.05410
C180        C  0.30567838  0.77017689  0.22797538    -0.32840
C181        C  0.32452590  0.80847293  0.22859489     0.36410
C182        C  0.34486486  0.80416258  0.25505892    -0.05770
C183        C  0.34550818  0.76146439  0.28101952    -0.32740
C184        C  0.32643861  0.72381227  0.28087287     0.36310
H185        H  0.29018308  0.77421259  0.20756047     0.16680
O186        O  0.32262641  0.85034634  0.20362747    -0.60240
H187        H  0.36113553  0.75655471  0.30104765     0.16700
O188        O  0.32798645  0.68244105  0.30633621    -0.60340
H189        H  0.33675856  0.65446827  0.29139986     0.43690
H190        H  0.31413076  0.87809750  0.21917767     0.43650
C191        C  0.15564767  0.27092157  0.25655019    -0.05410
C192        C  0.14804670  0.31748254  0.23825905    -0.32840
C193        C  0.16357228  0.36192948  0.23880489     0.36410
C194        C  0.18725959  0.35962250  0.25712710    -0.05770
C195        C  0.19468690  0.31293061  0.27546578    -0.32740
C196        C  0.17893138  0.26916480  0.27582820     0.36310
H197        H  0.13001996  0.31934150  0.22361477     0.16680
O198        O  0.15561482  0.40694325  0.22083287    -0.60240
H199        H  0.21282678  0.31030147  0.28968509     0.16700
O200        O  0.18688824  0.22404238  0.29365300    -0.60340
H201        H  0.18310730  0.22898909  0.32203247     0.43690
H202        H  0.15954318  0.40203768  0.19251994     0.43650
C203        C  0.31622688  0.36680252  0.25862474    -0.05410
C204        C  0.30985628  0.31957000  0.27715406    -0.32840
C205        C  0.32679475  0.27818527  0.27845231     0.36410
C206        C  0.35037078  0.28340240  0.26055066    -0.05770
C207        C  0.35696017  0.33074067  0.24241432    -0.32740
C208        C  0.34011483  0.37255506  0.24159942     0.36310
H209        H  0.29160177  0.31457598  0.29057346     0.16680
O210        O  0.31990141  0.23232305  0.29638973    -0.60240
H211        H  0.37513814  0.33506246  0.22860300     0.16700
O212        O  0.34696530  0.41826120  0.22340309    -0.60340
H213        H  0.34311813  0.41261162  0.19511023     0.43690
H214        H  0.31228046  0.21055457  0.27521663     0.43650
C215        C  0.15865388  0.59656075  0.07794402    -0.05410
C216        C  0.18468961  0.60302972  0.07723018    -0.32840
C217        C  0.19937857  0.59353230  0.11037878     0.36410
C218        C  0.18826295  0.57723706  0.14623039    -0.05770
C219        C  0.16200254  0.57152838  0.14739936    -0.32740
C220        C  0.14719353  0.58148390  0.11367594     0.36310
H221        H  0.19390424  0.61598706  0.05056431     0.16680
O222        O  0.22480093  0.60039131  0.10702737    -0.60240
H223        H  0.15297516  0.55861933  0.17421394     0.16700
O224        O  0.12176205  0.57405365  0.11542620    -0.60340
H225        H  0.11522735  0.60471171  0.13024109     0.43690
H226        H  0.23112538  0.56734983  0.09517156     0.43650
C227        C  0.15872239  0.59936877  0.43146768    -0.05410
C228        C  0.14690560  0.58204253  0.39653233    -0.32840
C229        C  0.16087881  0.57284620  0.36178981     0.36410
C230        C  0.18706735  0.58138559  0.36156016    -0.05770
C231        C  0.19837581  0.60092528  0.39618271    -0.32740
C232        C  0.18465560  0.60951496  0.43059177     0.36310
H233        H  0.12691948  0.57457567  0.39642735     0.16680
O234        O  0.14887495  0.55395234  0.32890548    -0.60240
H235        H  0.21832339  0.60884689  0.39712635     0.16700
O236        O  0.19672371  0.62985873  0.46302132    -0.60340
H237        H  0.20710309  0.60083388  0.47341228     0.43690
H238        H  0.14418041  0.58549038  0.31366310     0.43650
C239        C  0.34003783  0.60510115  0.07808085    -0.05410
C240        C  0.35215481  0.58540847  0.11185694    -0.32840
C241        C  0.33861270  0.57476758  0.14671670     0.36410
C242        C  0.31258436  0.58449645  0.14834984    -0.05770
C243        C  0.30100295  0.60650244  0.11504352    -0.32740
C244        C  0.31427723  0.61642585  0.08045228     0.36310
H245        H  0.37203095  0.57705971  0.11090431     0.16680
O246        O  0.35091047  0.55408451  0.17849686    -0.60240
H247        H  0.28117554  0.61549748  0.11531664     0.16700
O248        O  0.30199041  0.63936224  0.04949154    -0.60340
H249        H  0.29060757  0.61191168  0.03883002     0.43690
H250        H  0.35098589  0.51567400  0.17383908     0.43650
C251        C  0.31236804  0.58805780  0.36122278    -0.05410
C252        C  0.30112581  0.61253809  0.39399928    -0.32840
C253        C  0.31465506  0.62337386  0.42827801     0.36410
C254        C  0.34015557  0.61001815  0.43086550    -0.05770
C255        C  0.35208037  0.58892033  0.39734945    -0.32740
C256        C  0.33832706  0.57740043  0.36278885     0.36310
H257        H  0.28136711  0.62216874  0.39367475     0.16680
O258        O  0.30255544  0.64652009  0.45944511    -0.60040
H259        H  0.37181970  0.57929802  0.39855575     0.16700
O260        O  0.35024667  0.55419844  0.33149899    -0.60340
H261        H  0.34935357  0.51600918  0.33666402     0.43690
H262        H  0.30625873  0.68449061  0.45715307     0.43650
C263        C  0.35155662  0.36673889  0.07862314    -0.05410
C264        C  0.33602773  0.33132926  0.09840549    -0.32840
C265        C  0.31616865  0.34938697  0.12159754     0.36410
C266        C  0.31132835  0.40380009  0.12464772    -0.05770
C267        C  0.32840032  0.43908128  0.10795559    -0.32740
C268        C  0.34866450  0.42096004  0.08565300     0.36310
H269        H  0.33784470  0.28958550  0.09305061     0.16680
O270        O  0.30036862  0.31326921  0.13820086    -0.60240
H271        H  0.32559492  0.48083111  0.11107517     0.16700
O272        O  0.36480540  0.45635646  0.06877196    -0.60340
H273        H  0.35467314  0.47645951  0.04957113     0.43690
H274        H  0.30836075  0.30382356  0.16358417     0.43650
C275        C  0.31073554  0.41103276  0.38953363    -0.05410
C276        C  0.31818131  0.35816494  0.38640770    -0.32840
C277        C  0.33755794  0.33836800  0.40980991     0.36410
C278        C  0.35067234  0.37209550  0.43559659    -0.05770
C279        C  0.34539343  0.42605850  0.43467594    -0.32740
C280        C  0.32489334  0.44503507  0.41366241     0.36310
H281        H  0.30793034  0.33104876  0.36769291     0.16680
O282        O  0.34208222  0.28546710  0.40943468    -0.60240
H283        H  0.35543756  0.45286414  0.45398156     0.16700
O284        O  0.31817311  0.49633496  0.41867107    -0.60340
H285        H  0.30844651  0.49739388  0.44354270     0.43690
H286        H  0.33044195  0.27052100  0.42918904     0.43650
C287        C  0.15111755  0.36893905  0.07700286    -0.05410
C288        C  0.16573643  0.33254145  0.09749024    -0.32840
C289        C  0.18593803  0.34928794  0.12061441     0.36410
C290        C  0.19174596  0.40326998  0.12336740    -0.05770
C291        C  0.17561306  0.43963068  0.10578483    -0.32740
C292        C  0.15510409  0.42289732  0.08352128     0.36310
H293        H  0.16299774  0.29087696  0.09270019     0.16680
O294        O  0.20074595  0.31230627  0.13823828    -0.60240
H295        H  0.17931132  0.48114882  0.10827248     0.16700
O296        O  0.14043946  0.45947940  0.06513436    -0.60340
H297        H  0.12600650  0.46497895  0.08302982     0.43690
H298        H  0.21388997  0.30387227  0.11858558     0.43650
C299        C  0.15168696  0.36804992  0.43438114    -0.05410
C300        C  0.16761573  0.33280389  0.41508178    -0.32840
C301        C  0.18756025  0.35113484  0.39237073     0.36410
C302        C  0.19169177  0.40567791  0.38849520    -0.05770
C303        C  0.17440875  0.44066344  0.40511952    -0.32740
C304        C  0.15426789  0.42220642  0.42731905     0.36310
H305        H  0.16606366  0.29110471  0.42056159     0.16680
O306        O  0.20379961  0.31530514  0.37634948    -0.60240
H307        H  0.17690954  0.48247364  0.40189741     0.16700
O308        O  0.13848506  0.45755722  0.44500474    -0.60340
H309        H  0.12467770  0.46272632  0.42585510     0.43690
H310        H  0.21694795  0.31018209  0.39663686     0.43650
C311        C  0.05882219  0.10553343  0.36981404    -0.05410
C312        C  0.08413773  0.10459872  0.38128822    -0.32840
C313        C  0.10263176  0.12546761  0.35647817     0.36410
C314        C  0.09546153  0.14890951  0.32085503    -0.05770
C315        C  0.06990902  0.15374006  0.31158100    -0.32740
C316        C  0.05170659  0.13177692  0.33553305     0.36310
H317        H  0.08953108  0.08691773  0.40891703     0.16680
O318        O  0.12742814  0.12165830  0.36669345    -0.60240
H319        H  0.06415587  0.17224189  0.28435482     0.16700
O320        O  0.02696860  0.13500311  0.32473970    -0.60340
H321        H  0.02059722  0.16708113  0.33794150     0.43690
H322        H  0.13361675  0.08982004  0.35298372     0.43650
C323        C  0.06051651  0.10726064  0.13887042    -0.05410
C324        C  0.07778691  0.07068720  0.15320254    -0.32840
C325        C  0.09893328  0.08693952  0.17447931     0.36410
C326        C  0.10269670  0.14061508  0.18264154    -0.05770
C327        C  0.08654223  0.17744985  0.16570481    -0.32740
C328        C  0.06565192  0.16123427  0.14379370     0.36310
H329        H  0.07454584  0.02931414  0.14884682     0.16680
O330        O  0.11521776  0.05020681  0.18909355    -0.60240
H331        H  0.08877159  0.21878786  0.17244450     0.16700
O332        O  0.04913801  0.19833804  0.13057909    -0.60340
H333        H  0.05789271  0.21631887  0.10872067     0.43690
H334        H  0.10549552  0.02944761  0.20843816     0.43650
C335        C  0.06536902  0.15089776  0.00787192    -0.05410
C336        C  0.08992924  0.14512585  0.49371846    -0.32840
C337        C  0.10617010  0.18837317  0.49224199     0.36410
C338        C  0.09800572  0.23772826  0.50575890    -0.05770
C339        C  0.07378993  0.24321973  0.02071634    -0.32740
C340        C  0.05736488  0.20068220  0.02126741     0.36310
H341        H  0.09636357  0.10737601  0.48308868     0.16680
O342        O  0.12992351  0.18209928  0.47762712    -0.60240
H343        H  0.06744319  0.28100984  0.03146380     0.16700
O344        O  0.03365325  0.20808062  0.03582342    -0.60340
H345        H  0.02382736  0.22238730  0.01353124     0.43690
H346        H  0.14061647  0.17564440  0.50100983     0.43650
C347        C  0.40521664  0.15048225  0.32643493    -0.05410
C348        C  0.40797327  0.09584782  0.32853723    -0.32840
C349        C  0.42754871  0.07379266  0.34998185     0.36410
C350        C  0.44380269  0.10618060  0.37196201    -0.05770
C351        C  0.43926287  0.16059107  0.37307895    -0.32740
C352        C  0.42032865  0.18283565  0.35027597     0.36310
H353        H  0.39645480  0.07045377  0.31022817     0.16680
O354        O  0.43115839  0.02081083  0.34783587    -0.60240
H355        H  0.45132295  0.18662488  0.38989982     0.16700
O356        O  0.41868854  0.23639159  0.34810026    -0.60340
H357        H  0.40855143  0.24701455  0.37125964     0.43690
H358        H  0.44046262  0.01480900  0.32294360     0.43650
C359        C  0.40425594  0.15978635  0.18373865    -0.05410
C360        C  0.40405212  0.10593223  0.17552025    -0.32840
C361        C  0.42276898  0.08363790  0.15242427     0.36410
C362        C  0.44192727  0.11499012  0.13685970    -0.05770
C363        C  0.44035357  0.16979469  0.14131819    -0.32740
C364        C  0.42161986  0.19228946  0.16459606     0.36310
H365        H  0.39051046  0.08055032  0.18970871     0.16680
O366        O  0.42199226  0.03118545  0.14494475    -0.60240
H367        H  0.45448063  0.19513237  0.12861404     0.16700
O368        O  0.42221839  0.24516289  0.17204553    -0.60340
H369        H  0.41155030  0.26090720  0.15132504     0.43690
H370        H  0.41241872  0.02874164  0.11997581     0.43650
C371        C  0.40547998  0.23907331  0.50333895    -0.05410
C372        C  0.39859704  0.19290729  0.02303728    -0.32840
C373        C  0.41422518  0.14878064  0.02244154     0.36410
C374        C  0.43740815  0.15091933  0.50274015    -0.05770
C375        C  0.44418998  0.19706865  0.48298769    -0.32740
C376        C  0.42838853  0.24065564  0.48289736     0.36310
H377        H  0.38101720  0.19107839  0.03890204     0.16680
O378        O  0.40729303  0.10493690  0.04296806    -0.60240
H379        H  0.46196451  0.19954448  0.46772149     0.16700
O380        O  0.43580725  0.28508535  0.46351683    -0.60340
H381        H  0.44495313  0.30630339  0.48347603     0.43690
H382        H  0.39669186  0.08433405  0.02448541     0.43650
C383        C  0.41226709  0.90148416  0.32877959    -0.05410
C384        C  0.39996930  0.91988718  0.36292985    -0.32840
C385        C  0.41349536  0.93151309  0.39779098     0.36410
C386        C  0.43970008  0.92385327  0.39913431    -0.05770
C387        C  0.45145387  0.90232111  0.36564396    -0.32740
C388        C  0.43818728  0.89165879  0.33096949     0.36310
H389        H  0.37997320  0.92693258  0.36218650     0.16680
O390        O  0.40100583  0.95139198  0.42979741    -0.60240
H391        H  0.47142487  0.89480248  0.36570128     0.16700
O392        O  0.45070966  0.86994895  0.29960823    -0.60340
H393        H  0.46179079  0.89814768  0.28957165     0.43690
H394        H  0.40045816  0.98980713  0.42555519     0.43650
C395        C  0.43840620  0.92505171  0.11096620    -0.05410
C396        C  0.45068716  0.90553297  0.14457273    -0.32840
C397        C  0.43768807  0.89289231  0.17874861     0.36410
C398        C  0.41162714  0.90029086  0.18090435    -0.05770
C399        C  0.39880160  0.91592247  0.14653060    -0.32740
C400        C  0.41196780  0.92757542  0.11144165     0.36310
H401        H  0.47085265  0.90092224  0.14497037     0.16680
O402        O  0.45086186  0.87326402  0.21005959    -0.60240
H403        H  0.37865158  0.92075340  0.14721354     0.16700
O404        O  0.39913136  0.94581492  0.07924668    -0.60340
H405        H  0.38726958  0.91749681  0.07168015     0.43690
H406        H  0.44919645  0.83463739  0.20779688     0.43650
C407        C  0.44486042  0.78265622  0.00623709    -0.05410
C408        C  0.44577233  0.74073744  0.97932815    -0.32840
C409        C  0.42736175  0.70146994  0.97955428     0.36410
C410        C  0.40714939  0.70438215  0.00631236    -0.05770
C411        C  0.40623094  0.74668838  0.03298218    -0.32740
C412        C  0.42485447  0.78532746  0.03316970     0.36310
H413        H  0.46118113  0.73774387  0.45860101     0.16680
O414        O  0.42953698  0.66009017  0.95382661    -0.60240
H415        H  0.39066648  0.75062305  0.05322353     0.16700
O416        O  0.42284442  0.82646963  0.05904151    -0.60340
H417        H  0.41650009  0.85590242  0.04294811     0.43690
H418        H  0.43840683  0.63249267  0.96879782     0.43650
C419        C  0.09223864  0.90700893  0.33265819    -0.05410
C420        C  0.07372394  0.87213360  0.34552400    -0.32840
C421        C  0.06017273  0.88222452  0.38001854     0.36410
C422        C  0.06545594  0.92718524  0.40304642    -0.05770
C423        C  0.08510728  0.96044538  0.39140175    -0.32740
C424        C  0.09815998  0.95113065  0.35603136     0.36310
H425        H  0.06925736  0.83761840  0.32808504     0.16680
O426        O  0.04169561  0.84783132  0.39101159    -0.60240
H427        H  0.08943071  0.99505490  0.40866415     0.16700
O428        O  0.11636281  0.98564841  0.34426550    -0.60340
H429        H  0.10778143  0.01008412  0.32609477     0.43690
H430        H  0.02695126  0.85689714  0.37461138     0.43650
C431        C  0.06163569  0.93168802  0.11639081    -0.05410
C432        C  0.08792775  0.93620241  0.11580699    -0.32840
C433        C  0.10228894  0.92609211  0.14994654     0.36410
C434        C  0.09036118  0.91140414  0.18543618    -0.05770
C435        C  0.06426897  0.90599970  0.18554826    -0.32740
C436        C  0.05000472  0.91605494  0.15202554     0.36310
H437        H  0.09732811  0.94877057  0.08921659     0.16680
O438        O  0.12775569  0.93332143  0.14888546    -0.60240
H439        H  0.05467127  0.89334557  0.21196593     0.16700
O440        O  0.02449235  0.91030051  0.15476972    -0.60340
H441        H  0.01838060  0.94365332  0.16640826     0.43690
H442        H  0.13432089  0.90388369  0.13275316     0.43650
C443        C  0.05793101  0.78386173  0.00964584    -0.05410
C444        C  0.07773146  0.78726387  0.98261829    -0.32840
C445        C  0.09648588  0.74898533  0.98143058     0.36410
C446        C  0.09515377  0.70495966  0.00647422    -0.05770
C447        C  0.07536199  0.70196093  0.03371423    -0.32740
C448        C  0.05707295  0.74120210  0.03575995     0.36310
H449        H  0.07887279  0.82023720  0.96269252     0.16680
O450        O  0.11626789  0.75573244  0.95620232    -0.60240
H451        H  0.07387374  0.66867273  0.05325417     0.16700
O452        O  0.03767665  0.73597046  0.06192670    -0.60340
H453        H  0.54404846  0.75088380  0.08707699     0.43690
H454        H  0.12963140  0.77236345  0.97235119     0.43650
O455        O  0.47314133  0.03842236  0.88728074    -0.88130
C456        C  0.03777649  0.82351764  0.50899251     1.11910
O457        O  0.00174343  0.02802557  0.96547405    -1.35930
O458        O  0.47435150  0.83662718  0.97374580    -0.89610
O459        O  0.47544695  0.11494673  0.91917204    -0.90280
O460        O  0.44851129  0.06008591  0.00475403    -0.79100
O461        O  0.47866156  0.93728743  0.92925381    -1.01190
C462        C  0.45456052  0.94475434  0.57817451     1.21960
O463        O  0.50082047  0.03037852  0.54672895    -1.36080
Mn464      Mn  0.02880739  0.99699965  0.50722732     1.82060
O465        O  0.44691390  0.96580725  0.54701181    -0.78170
O466        O  0.47252141  0.84029442  0.53959466    -0.87570
C467        C  0.04586020  0.94636345  0.58170565     1.13040
C468        C  0.46507107  0.82250184  0.50649908     1.07770
O469        O  0.05473929  0.05946614  0.50732301    -0.79110
O470        O  0.00121447  0.93459834  0.50665396    -1.32810
O471        O  0.02530296  0.11441267  0.50623218    -0.98320
C472        C  0.46333351  0.09193237  0.61542326     1.06480
Mn473      Mn  0.50045071  0.89161416  0.55954875     1.48570
O474        O  0.47343943  0.12049547  0.58968699    -0.87520
Mn475      Mn  0.00243111  0.11116506  0.96223884     1.49560
O476        O  0.02998092  0.03915807  0.88646859    -0.91400
C477        C  0.45604638  0.94137883  0.93264460     1.19670
C478        C  0.03922075  0.08389981  0.89478415     1.11730
Mn479      Mn  0.47365016  0.99691172  0.00563812     1.80970
O480        O  0.02327566  0.94237691  0.58421966    -0.96550
Mn481      Mn  0.50185700  0.99048477  0.90968369     1.49260
C482        C  0.46542637  0.08486195  0.89395084     1.08250
Mn483      Mn  0.99987300  0.99588825  0.60273278     1.49930
C484        C  0.03789755  0.08875060  0.61762094     1.11160
O485        O  0.47791195  0.11659675  0.00452387    -1.02350
O486        O  0.02850452  0.83915450  0.54155780    -0.92010
C487        C  0.45545970  0.10711010  0.00405193     1.22440
O488        O  0.47709661  0.94237653  0.58214461    -1.02740
O489        O  0.03029556  0.83954910  0.97559062    -0.90140
O490        O  0.02849387  0.04420910  0.62590430    -0.89750
O491        O  0.03114007  0.11338680  0.92186041    -0.89770
Mn492      Mn  0.00211801  0.88876872  0.95446131     1.47860
O493        O  0.05416252  0.96637057  0.55051880    -0.78240
C494        C  0.04770705  0.10622894  0.50714673     1.15490
O495        O  0.44822256  0.96418688  0.96319088    -0.76980
O496        O  0.05485352  0.96557890  0.96609839    -0.76590
Mn497      Mn  0.50136669  0.11377158  0.54862483     1.51060
O498        O  0.47097813  0.04578498  0.62342331    -0.88940
O499        O  0.02547628  0.93807271  0.92942062    -0.96470
O500        O  0.02915811  0.11798013  0.59100941    -0.91480
C501        C  0.04790559  0.94344147  0.93474885     1.13280
C502        C  0.11454735  0.28394043  0.00540342     0.03180
C503        C  0.12300747  0.30491990  0.96956170    -0.12970
C504        C  0.13825662  0.34980675  0.96969348     0.00680
C505        C  0.14516876  0.37258465  0.00556138    -0.11490
C506        C  0.13767315  0.35107234  0.54135023     0.03170
C507        C  0.12198535  0.30699167  0.54126079    -0.10910
H508        H  0.11805484  0.28608854  0.94191341     0.08770
H509        H  0.15876364  0.40427317  0.00562366     0.06300
H510        H  0.11641873  0.28942328  0.56891557     0.06140
C511        C  0.38887215  0.28551513  0.00468356     0.03180
C512        C  0.38041044  0.30527318  0.54125803    -0.12970
C513        C  0.36432518  0.34865624  0.54247307     0.00680
C514        C  0.35618407  0.37060321  0.00725082    -0.11490
C515        C  0.36382494  0.35123354  0.97067555     0.03170
C516        C  0.38058113  0.30888532  0.96940751    -0.10910
H517        H  0.38607216  0.28669318  0.56847449     0.08770
H518        H  0.34186994  0.40064537  0.00845050     0.06300
H519        H  0.38642832  0.29294243  0.94124537     0.06140
C520        C  0.38638330  0.66530373  0.50562839     0.03180
C521        C  0.37530233  0.65062993  0.46952563    -0.12970
C522        C  0.35397867  0.61853224  0.46854118     0.00680
C523        C  0.34398746  0.60001998  0.50423382    -0.11490
C524        C  0.35410968  0.61575730  0.54081690     0.03170
C525        C  0.37572472  0.64731109  0.54114039    -0.10910
H526        H  0.38221004  0.66703469  0.94222423     0.08770
H527        H  0.32741902  0.57537220  0.50354167     0.06300
H528        H  0.38351456  0.66000344  0.56911228     0.06140
C529        C  0.11457668  0.66296947  0.50550500     0.03180
C530        C  0.12428793  0.64425410  0.96939943    -0.12970
C531        C  0.14442342  0.60895584  0.96867877     0.00680
C532        C  0.15347461  0.58919549  0.50460230    -0.11490
C533        C  0.14436285  0.60774592  0.54103002     0.03170
C534        C  0.12474373  0.64426441  0.54110889    -0.10910
H535        H  0.11704419  0.65904712  0.94181650     0.08770
H536        H  0.16893162  0.56173722  0.50424619     0.06300
H537        H  0.11855785  0.66091787  0.56885053     0.06140
O538        O  0.22311386  0.39332963  0.67141612    -0.88130
C539        C  0.28834522  0.42936829  0.86752750     1.11910
O540        O  0.25074727  0.48224139  0.71478518    -1.35930
O541        O  0.22346959  0.39656518  0.84139116    -0.89610
O542        O  0.22313643  0.46694622  0.63629975    -0.90280
O543        O  0.19674895  0.54352198  0.71206809    -0.79100
O544        O  0.22753710  0.39545828  0.75645767    -1.01190
C545        C  0.20388113  0.56723196  0.82782891     1.21960
O546        O  0.24982855  0.57761744  0.75472664    -1.36080
Mn547      Mn  0.27777916  0.51670185  0.75520699     1.82060
O548        O  0.19659320  0.54549110  0.79645751    -0.78170
O549        O  0.22168018  0.47224999  0.87438349    -0.87570
C550        C  0.29572521  0.57056014  0.82820969     1.13040
C551        C  0.21364875  0.42618070  0.86697315     1.07770
O552        O  0.30367440  0.54829520  0.71330477    -0.79110
O553        O  0.25049958  0.48401805  0.79609950    -1.32810
O554        O  0.27351068  0.57197683  0.67783913    -0.98320
C555        C  0.21268362  0.68695063  0.75400939     1.06480
Mn556      Mn  0.25006574  0.52106827  0.85194420     1.48570
O557        O  0.22041201  0.66975784  0.72093898    -0.87520
Mn558      Mn  0.25106320  0.51696754  0.65861329     1.49560
O559        O  0.27922165  0.39467807  0.67136574    -0.91400
C560        C  0.20504535  0.40399618  0.75615339     1.19670
C561        C  0.28893689  0.42390436  0.64558505     1.11730
Mn562      Mn  0.22281275  0.51431488  0.75483043     1.80970
O563        O  0.27314912  0.57412952  0.83224305    -0.96550
Mn564      Mn  0.25124577  0.39880284  0.71309463     1.49260
C565        C  0.21409433  0.42223038  0.64481193     1.08250
Mn566      Mn  0.24973569  0.62258685  0.80715653     1.49930
C567        C  0.28567973  0.68928236  0.75419213     1.11160
O568        O  0.22706680  0.56870105  0.67761529    -1.02350
O569        O  0.27895828  0.47417852  0.87502770    -0.92010
C570        C  0.20454134  0.56350498  0.68057675     1.22440
O571        O  0.22640540  0.57289182  0.83189266    -1.02740
O572        O  0.27942890  0.39891653  0.84150768    -0.90140
O573        O  0.27786599  0.67276475  0.78724669    -0.89750
O574        O  0.28044161  0.46925692  0.63745353    -0.89770
Mn575      Mn  0.25134063  0.40075219  0.79966341     1.47860
O576        O  0.30336123  0.54959576  0.79691151    -0.78240
C577        C  0.29607339  0.56871605  0.68189901     1.15490
O578        O  0.19788263  0.45067293  0.75487415    -0.76980
O579        O  0.30357101  0.45579036  0.75552170    -0.76590
Mn580      Mn  0.24939186  0.62074061  0.70180554     1.51060
O581        O  0.22193522  0.67324704  0.78693134    -0.88940
O582        O  0.27513408  0.39733445  0.75649951    -0.96470
O583        O  0.27654834  0.67456057  0.72125093    -0.91480
C584        C  0.29738573  0.40852892  0.75657979     1.13280
C585        C  0.13934671  0.22410463  0.75537202     0.03180
C586        C  0.13229272  0.20160626  0.71895663    -0.12970
C587        C  0.11694733  0.15678508  0.71804610     0.00680
C588        C  0.10918034  0.13476901  0.75347703    -0.11490
C589        C  0.11338558  0.16045233  0.78920873     0.03170
C590        C  0.12931492  0.20407146  0.79057235    -0.10910
H591        H  0.13806217  0.21971062  0.69161394     0.08770
H592        H  0.09606086  0.10219355  0.75294436     0.06300
H593        H  0.13247071  0.22444631  0.81825610     0.06140
C594        C  0.36595572  0.84242073  0.75504138     0.03180
C595        C  0.37691623  0.85775822  0.71919372    -0.12970
C596        C  0.39814799  0.89017684  0.71869941     0.00680
C597        C  0.40813138  0.90815248  0.75486105    -0.11490
C598        C  0.39832714  0.89110322  0.79115416     0.03170
C599        C  0.37677849  0.85944096  0.79087466    -0.10910
H600        H  0.36985723  0.84186682  0.69165891     0.08770
H601        H  0.42433796  0.93379612  0.75476649     0.06300
H602        H  0.36906442  0.84618680  0.81859973     0.06140
C603        C  0.13492536  0.84458083  0.75690363     0.03180
C604        C  0.12455562  0.86389430  0.72169543    -0.12970
C605        C  0.10428555  0.89894846  0.72245683     0.00680
C606        C  0.09494572  0.91585324  0.75931971    -0.11490
C607        C  0.10490288  0.89636611  0.79462837     0.03170
C608        C  0.12470562  0.86062139  0.79317554    -0.10910
H609        H  0.13153749  0.84965795  0.69369494     0.08770
H610        H  0.07903558  0.94211557  0.76057449     0.06300
H611        H  0.13136083  0.84353145  0.82037719     0.06140
C612        C  0.36764429  0.23874775  0.75886713     0.03180
C613        C  0.37612638  0.22044166  0.72209965    -0.12970
C614        C  0.39230989  0.17759246  0.72031190     0.00680
C615        C  0.40014000  0.15378453  0.75498326    -0.11490
C616        C  0.39247270  0.17232361  0.79171703     0.03170
C617        C  0.37594089  0.21479948  0.79376525    -0.10910
H618        H  0.37020650  0.23941014  0.69516458     0.08770
H619        H  0.41389893  0.12259425  0.75334926     0.06300
H620        H  0.37007006  0.22993739  0.82217806     0.06140
C621        C  0.15510538  0.80449797  0.75584906    -0.05410
C622        C  0.15340265  0.76184821  0.72946379    -0.32840
C623        C  0.17192942  0.72307782  0.72854065     0.36410
C624        C  0.19250276  0.72630342  0.75445260    -0.05770
C625        C  0.19418817  0.76863367  0.78086766    -0.32740
C626        C  0.17585311  0.80770386  0.78155201     0.36310
H627        H  0.13745105  0.75807353  0.70987293     0.16680
O628        O  0.16954640  0.68189309  0.70263158    -0.60240
H629        H  0.21015087  0.77216468  0.80049001     0.16700
O630        O  0.17905284  0.85028122  0.80597463    -0.60340
H631        H  0.17681786  0.83679602  0.83310143     0.43690
H632        H  0.16087840  0.65396903  0.71762691     0.43650
C633        C  0.30629677  0.72793570  0.75421213    -0.05410
C634        C  0.30569296  0.77011848  0.72792377    -0.32840
C635        C  0.32453953  0.80841691  0.72855253     0.36410
C636        C  0.34487458  0.80410783  0.75502482    -0.05770
C637        C  0.34551595  0.76140517  0.78098115    -0.32740
C638        C  0.32644735  0.72375050  0.78082521     0.36310
H639        H  0.29019972  0.77415631  0.70750525     0.16680
O640        O  0.32264183  0.85029349  0.70358777    -0.60240
H641        H  0.36114041  0.75649569  0.80101488     0.16700
O642        O  0.32799197  0.68237879  0.80628885    -0.60340
H643        H  0.33676962  0.65440832  0.79135805     0.43690
H644        H  0.31414271  0.87804085  0.71913706     0.43650
C645        C  0.15563785  0.27090013  0.75657469    -0.05410
C646        C  0.14803227  0.31745926  0.73828555    -0.32840
C647        C  0.16355445  0.36191104  0.73883063     0.36410
C648        C  0.18724282  0.35960984  0.75714932    -0.05770
C649        C  0.19467332  0.31292189  0.77549034    -0.32740
C650        C  0.17892117  0.26915155  0.77585393     0.36310
H651        H  0.13000536  0.31931182  0.72364128     0.16680
O652        O  0.15559347  0.40692259  0.72085932    -0.60240
H653        H  0.21281400  0.31029799  0.78970773     0.16700
O654        O  0.18688188  0.22403164  0.79367812    -0.60340
H655        H  0.18310156  0.22897728  0.82205791     0.43690
H656        H  0.15951863  0.40201596  0.69254539     0.43650
C657        C  0.31621115  0.36677020  0.75860634    -0.05410
C658        C  0.30983947  0.31953595  0.77713264    -0.32840
C659        C  0.32677993  0.27815482  0.77843957     0.36410
C660        C  0.35035900  0.28337610  0.76054846    -0.05770
C661        C  0.35694968  0.33071645  0.74241577    -0.32740
C662        C  0.34010284  0.37252833  0.74159374     0.36310
H663        H  0.29158287  0.31453830  0.79054432     0.16680
O664        O  0.31988570  0.23229191  0.79637518    -0.60240
H665        H  0.37513026  0.33504212  0.72861361     0.16700
O666        O  0.34695718  0.41823988  0.72340757    -0.60340
H667        H  0.34310271  0.41261070  0.69511499     0.43690
H668        H  0.31226816  0.21052204  0.77519987     0.43650
C669        C  0.15862462  0.59651896  0.57794241    -0.05410
C670        C  0.18465958  0.60299173  0.57722769    -0.32840
C671        C  0.19934883  0.59350212  0.61037621     0.36410
C672        C  0.18823539  0.57721123  0.64623015    -0.05770
C673        C  0.16197490  0.57150194  0.64740169    -0.32740
C674        C  0.14716491  0.58145014  0.61367717     0.36310
H675        H  0.19387375  0.61594517  0.55056040     0.16680
O676        O  0.22477055  0.60035720  0.60702005    -0.60240
H677        H  0.15294854  0.55859689  0.67421818     0.16700
O678        O  0.12173346  0.57402093  0.61542944    -0.60340
H679        H  0.11519909  0.60468398  0.63023880     0.43690
H680        H  0.23109401  0.56729735  0.59519228     0.43650
C681        C  0.15873741  0.59940434  0.93146815    -0.05410
C682        C  0.14691691  0.58206441  0.89653990    -0.32840
C683        C  0.16088607  0.57285864  0.86179499     0.36410
C684        C  0.18707437  0.58140119  0.86155572    -0.05770
C685        C  0.19838656  0.60095522  0.89617066    -0.32740
C686        C  0.18467023  0.60955492  0.93058239     0.36310
H687        H  0.12693117  0.57459293  0.89644274     0.16680
O688        O  0.14887870  0.55395062  0.82891832    -0.60240
H689        H  0.21833401  0.60887989  0.89710620     0.16700
O690        O  0.19674156  0.62991148  0.96300465    -0.60340
H691        H  0.20712582  0.60089406  0.97339546     0.43690
H692        H  0.14418017  0.58548224  0.81367153     0.43650
C693        C  0.34012163  0.60515249  0.57814807    -0.05410
C694        C  0.35223455  0.58586095  0.61205632    -0.32840
C695        C  0.33864167  0.57518690  0.64686230     0.36410
C696        C  0.31255560  0.58434126  0.64826039    -0.05770
C697        C  0.30094752  0.60574380  0.61474004    -0.32740
C698        C  0.31432049  0.61620510  0.58039632     0.36310
H699        H  0.37214312  0.57782814  0.61125195     0.16680
O700        O  0.35094650  0.55497787  0.67880937    -0.60240
H701        H  0.28104682  0.61400638  0.61471828     0.16700
O702        O  0.30181680  0.63777226  0.54912172    -0.60340
H703        H  0.30465708  0.67609036  0.55152639     0.43690
H704        H  0.35117658  0.51653296  0.67433177     0.43650
C705        C  0.31238779  0.58802213  0.86115582    -0.05410
C706        C  0.30116620  0.61265703  0.89388142    -0.32840
C707        C  0.31469773  0.62350960  0.92815240     0.36410
C708        C  0.34017380  0.60998850  0.93079473    -0.05770
C709        C  0.35208763  0.58874259  0.89732279    -0.32740
C710        C  0.33833368  0.57722633  0.86275974     0.36310
H711        H  0.28142219  0.62241559  0.89351921     0.16680
O712        O  0.30262806  0.64687015  0.95925413    -0.60040
H713        H  0.37181308  0.57900696  0.89856795     0.16700
O714        O  0.35023519  0.55388343  0.83151169    -0.60340
H715        H  0.34928408  0.51571084  0.83672039     0.43690
H716        H  0.30633741  0.68481967  0.95681143     0.43650
C717        C  0.35154533  0.36670441  0.57865393    -0.05410
C718        C  0.33596769  0.33128857  0.59833519    -0.32840
C719        C  0.31609864  0.34934343  0.62150439     0.36410
C720        C  0.31130492  0.40376351  0.62464956    -0.05770
C721        C  0.32842917  0.43904235  0.60808007    -0.32740
C722        C  0.34869003  0.42091592  0.58576792     0.36310
H723        H  0.33775502  0.28955448  0.59290949     0.16680
O724        O  0.30024509  0.31323139  0.63799019    -0.60240
H725        H  0.32567230  0.48079674  0.61131105     0.16700
O726        O  0.36486816  0.45630654  0.56896942    -0.60340
H727        H  0.35476942  0.47644461  0.54974615     0.43690
H728        H  0.30820311  0.30364852  0.66337012     0.43650
C729        C  0.31073434  0.41102164  0.88950684    -0.05410
C730        C  0.31819050  0.35816217  0.88635671    -0.32840
C731        C  0.33756832  0.33836094  0.90975360     0.36410
C732        C  0.35067434  0.37207814  0.93555696    -0.05770
C733        C  0.34538809  0.42604015  0.93465595    -0.32740
C734        C  0.32488314  0.44501687  0.91365448     0.36310
H735        H  0.30794594  0.33105251  0.86762807     0.16680
O736        O  0.34210107  0.28546336  0.90935788    -0.60240
H737        H  0.35542606  0.45283815  0.95397561     0.16700
O738        O  0.31814749  0.49630408  0.91869707    -0.60340
H739        H  0.30842742  0.49732611  0.94357584     0.43690
H740        H  0.33045988  0.27049415  0.92910100     0.43650
C741        C  0.15108806  0.36893487  0.57699886    -0.05410
C742        C  0.16569439  0.33252881  0.59750031    -0.32840
C743        C  0.18589223  0.34926442  0.62063614     0.36410
C744        C  0.19170820  0.40324229  0.62338422    -0.05770
C745        C  0.17558354  0.43961203  0.60579331    -0.32740
C746        C  0.15507819  0.42289024  0.58351905     0.36310
H747        H  0.16295076  0.29086553  0.59271129     0.16680
O748        O  0.20068975  0.31227617  0.63827376    -0.60240
H749        H  0.17928764  0.48112804  0.60827813     0.16700
O750        O  0.14042361  0.45947934  0.56512026    -0.60340
H751        H  0.12598314  0.46497888  0.58300070     0.43690
H752        H  0.21383471  0.30382161  0.61862759     0.43650
C753        C  0.15168569  0.36804831  0.93439003    -0.05410
C754        C  0.16761721  0.33280477  0.91509412    -0.32840
C755        C  0.18756176  0.35113794  0.89238404     0.36410
C756        C  0.19169067  0.40568165  0.88850385    -0.05770
C757        C  0.17440536  0.44066495  0.90512504    -0.32740
C758        C  0.15426448  0.42220515  0.92732471     0.36310
H759        H  0.16606764  0.29110592  0.92057698     0.16680
O760        O  0.20380384  0.31530950  0.87636810    -0.60240
H761        H  0.17690400  0.48247531  0.90189944     0.16700
O762        O  0.13847955  0.45755414  0.94500769    -0.60340
H763        H  0.12467273  0.46271966  0.92585651     0.43690
H764        H  0.21695209  0.31019475  0.89665687     0.43650
C765        C  0.05882069  0.10546827  0.86980117    -0.05410
C766        C  0.08413558  0.10452118  0.88127804    -0.32840
C767        C  0.10263237  0.12538968  0.85647309     0.36410
C768        C  0.09546563  0.14883954  0.82085122    -0.05770
C769        C  0.06991417  0.15367522  0.81157196    -0.32740
C770        C  0.05170888  0.13171533  0.83551993     0.36310
H771        H  0.08952583  0.08683434  0.90890637     0.16680
O772        O  0.12742773  0.12157745  0.86669407    -0.60240
H773        H  0.06416396  0.17218232  0.78434627     0.16700
O774        O  0.02697171  0.13495061  0.82472353    -0.60340
H775        H  0.02060255  0.16703185  0.83792355     0.43690
H776        H  0.13362066  0.08975555  0.85296775     0.43650
C777        C  0.06051776  0.10725323  0.63887786    -0.05410
C778        C  0.07779132  0.07067712  0.65319629    -0.32840
C779        C  0.09893996  0.08692451  0.67446916     0.36410
C780        C  0.10270172  0.14059724  0.68264308    -0.05770
C781        C  0.08654413  0.17743631  0.66571850    -0.32740
C782        C  0.06565209  0.16122572  0.64380971     0.36310
H783        H  0.07455119  0.02930553  0.64883242     0.16680
O784        O  0.11522830  0.05018904  0.68906895    -0.60240
H785        H  0.08877264  0.21877223  0.67246626     0.16700
O786        O  0.04913621  0.19833195  0.63060524    -0.60340
H787        H  0.05788477  0.21630534  0.60873728     0.43690
H788        H  0.10550958  0.02941812  0.70841080     0.43650
C789        C  0.06536413  0.15091069  0.50787361    -0.05410
C790        C  0.08993686  0.14511219  0.99372744    -0.32840
C791        C  0.10618123  0.18835690  0.99226526     0.36410
C792        C  0.09801869  0.23771185  0.00578693    -0.05770
C793        C  0.07377959  0.24323579  0.52069802    -0.32740
C794        C  0.05735827  0.20069504  0.52126480     0.36310
H795        H  0.09637069  0.10736397  0.98309359     0.16680
O796        O  0.12993596  0.18208113  0.97765629    -0.60240
H797        H  0.06743290  0.28102663  0.53144423     0.16700
O798        O  0.03364933  0.20808951  0.53583294    -0.60340
H799        H  0.02381779  0.22239123  0.51354506     0.43690
H800        H  0.14062601  0.17562014  0.00104131     0.43650
C801        C  0.40520349  0.15045350  0.82643962    -0.05410
C802        C  0.40795954  0.09581879  0.82854250    -0.32840
C803        C  0.42753643  0.07376258  0.84998385     0.36410
C804        C  0.44379307  0.10614979  0.87195995    -0.05770
C805        C  0.43925396  0.16056073  0.87307664    -0.32740
C806        C  0.42031794  0.18280607  0.85027740     0.36310
H807        H  0.39643953  0.07042518  0.81023552     0.16680
O808        O  0.43114489  0.02078034  0.84783818    -0.60240
H809        H  0.45131579  0.18659443  0.88989442     0.16700
O810        O  0.41867837  0.23636205  0.84810142    -0.60340
H811        H  0.40854105  0.24698551  0.87126042     0.43690
H812        H  0.44044758  0.01477699  0.82294469     0.43650
C813        C  0.40425263  0.15976632  0.68374488    -0.05410
C814        C  0.40405048  0.10591320  0.67552188    -0.32840
C815        C  0.42276947  0.08362369  0.65242728     0.36410
C816        C  0.44192876  0.11497965  0.63686967    -0.05770
C817        C  0.44035421  0.16978333  0.64133368    -0.32740
C818        C  0.42161814  0.19227329  0.66460945     0.36310
H819        H  0.39050787  0.08052825  0.68970503     0.16680
O820        O  0.42199396  0.03117232  0.64494241    -0.60240
H821        H  0.45448205  0.19512396  0.62863490     0.16700
O822        O  0.42221544  0.24514558  0.67206388    -0.60340
H823        H  0.41154983  0.26089296  0.65134158     0.43690
H824        H  0.41242771  0.02873232  0.61996630     0.43650
C825        C  0.40548226  0.23906748  0.00331905    -0.05410
C826        C  0.39859467  0.19290745  0.52304993    -0.32840
C827        C  0.41422407  0.14878213  0.52245071     0.36410
C828        C  0.43740786  0.15091108  0.00272689    -0.05770
C829        C  0.44419007  0.19705525  0.98296806    -0.32740
C830        C  0.42838969  0.24064367  0.98287430     0.36310
H831        H  0.38101411  0.19107339  0.53891234     0.16680
O832        O  0.40729163  0.10493281  0.54297029    -0.60240
H833        H  0.46196386  0.19952563  0.96769923     0.16700
O834        O  0.43580808  0.28506810  0.96348669    -0.60340
H835        H  0.44495572  0.30628989  0.98344164     0.43690
H836        H  0.39669295  0.08433222  0.52448269     0.43650
C837        C  0.41226269  0.90144394  0.82877754    -0.05410
C838        C  0.39996180  0.91984546  0.86292586    -0.32840
C839        C  0.41348522  0.93147678  0.89778949     0.36410
C840        C  0.43969036  0.92382293  0.89913789    -0.05770
C841        C  0.45144699  0.90229151  0.86564940    -0.32740
C842        C  0.43818326  0.89162508  0.83097260     0.36310
H843        H  0.37996538  0.92688624  0.86217884     0.16680
O844        O  0.40099270  0.95135451  0.92979336    -0.60240
H845        H  0.47141835  0.89477717  0.86570966     0.16700
O846        O  0.45070912  0.86991845  0.79961353    -0.60340
H847        H  0.46178931  0.89812002  0.78957888     0.43690
H848        H  0.40044368  0.98976936  0.92555016     0.43650
C849        C  0.43841360  0.92504833  0.61096154    -0.05410
C850        C  0.45069579  0.90553948  0.64457046    -0.32840
C851        C  0.43769726  0.89289475  0.67874616     0.36410
C852        C  0.41163526  0.90027813  0.68089935    -0.05770
C853        C  0.39880916  0.91590287  0.64652401    -0.32740
C854        C  0.41197501  0.92756079  0.61143559     0.36310
H855        H  0.47086179  0.90093911  0.64496997     0.16680
O856        O  0.45087255  0.87327528  0.71005874    -0.60240
H857        H  0.37865851  0.92072301  0.64720490     0.16700
O858        O  0.39913747  0.94579305  0.57923941    -0.60340
H859        H  0.38727940  0.91746848  0.57167217     0.43690
H860        H  0.44921312  0.83464757  0.70779588     0.43650
C861        C  0.44488082  0.78266477  0.50620062    -0.05410
C862        C  0.44579863  0.74075173  0.47928610    -0.32840
C863        C  0.42739682  0.70146674  0.47951496     0.36410
C864        C  0.40719206  0.70435248  0.50628594    -0.05770
C865        C  0.40626319  0.74666131  0.53295236    -0.32740
C866        C  0.42487554  0.78532095  0.53313412     0.36310
H867        H  0.46115657  0.73771228  0.95864762     0.16680
O868        O  0.42957319  0.66009586  0.45377955    -0.60240
H869        H  0.39070003  0.75057667  0.55319870     0.16700
O870        O  0.42285712  0.82646353  0.55900446    -0.60340
H871        H  0.41650779  0.85589070  0.54291001     0.43690
H872        H  0.43845474  0.63250381  0.46873935     0.43650
C873        C  0.09223071  0.90697192  0.83266010    -0.05410
C874        C  0.07369285  0.87212977  0.84549426    -0.32840
C875        C  0.06014024  0.88221684  0.87998810     0.36410
C876        C  0.06544207  0.92714353  0.90304380    -0.05770
C877        C  0.08511494  0.96036790  0.89142957    -0.32740
C878        C  0.09817212  0.95105430  0.85606306     0.36310
H879        H  0.06921121  0.83764295  0.82803296     0.16680
O880        O  0.04164419  0.84785218  0.89095430    -0.60240
H881        H  0.08945369  0.99495102  0.90871335     0.16700
O882        O  0.11639815  0.98553796  0.84432895    -0.60340
H883        H  0.10783974  0.00999169  0.82614527     0.43690
H884        H  0.02690894  0.85695794  0.87454662     0.43650
C885        C  0.06163853  0.93168363  0.61639120    -0.05410
C886        C  0.08793074  0.93619504  0.61581007    -0.32840
C887        C  0.10229042  0.92607929  0.64995039     0.36410
C888        C  0.09036104  0.91138720  0.68543791    -0.05770
C889        C  0.06426878  0.90598382  0.68554660    -0.32740
C890        C  0.05000602  0.91604569  0.65202351     0.36310
H891        H  0.09733231  0.94876650  0.58922163     0.16680
O892        O  0.12775725  0.93330839  0.64889242    -0.60240
H893        H  0.05466968  0.89332605  0.71196201     0.16700
O894        O  0.02449344  0.91029343  0.65476515    -0.60340
H895        H  0.01838213  0.94364483  0.66640659     0.43690
H896        H  0.13432292  0.90387408  0.63275703     0.43650
C897        C  0.05793434  0.78386906  0.50963385    -0.05410
C898        C  0.07774127  0.78727065  0.48261826    -0.32840
C899        C  0.09648953  0.74897907  0.48143123     0.36410
C900        C  0.09514412  0.70494348  0.50646312    -0.05770
C901        C  0.07534583  0.70194522  0.53369077    -0.32740
C902        C  0.05706282  0.74119754  0.53573586     0.36310
H903        H  0.07889217  0.82025237  0.46270169     0.16680
O904        O  0.11627836  0.75572191  0.45621549    -0.60240
H905        H  0.07384794  0.66864889  0.55322120     0.16700
O906        O  0.03765887  0.73596592  0.56188867    -0.60340
H907        H  0.54403965  0.75088601  0.58705687     0.43690
H908        H  0.12964105  0.77233650  0.47237555     0.43650
O909        O  0.97315054  0.03845949  0.38728411    -0.88130
C910        C  0.53776791  0.82349850  0.00900677     1.11910
O911        O  0.50174974  0.02804582  0.46547792    -1.35930
O912        O  0.97436776  0.83664980  0.47372086    -0.89610
O913        O  0.97544897  0.11497708  0.41918601    -0.90280
O914        O  0.94851363  0.06009331  0.50476071    -0.79100
O915        O  0.97867255  0.93731679  0.42924413    -1.01190
C916        C  0.95455443  0.94475816  0.07817990     1.21960
O917        O  0.00081670  0.03037285  0.04672430    -1.36080
Mn918      Mn  0.52880215  0.99698231  0.00722332     1.82060
O919        O  0.94690828  0.96580870  0.04701598    -0.78170
O920        O  0.97251020  0.84028611  0.03961780    -0.87570
C921        C  0.54585573  0.94636016  0.08170609     1.13040
C922        C  0.96505520  0.82249016  0.00652589     1.07770
O923        O  0.55473718  0.05944965  0.00731114    -0.79110
O924        O  0.50120669  0.93458195  0.00666026    -1.32810
O925        O  0.52530365  0.11440250  0.00621805    -0.98320
C926        C  0.96333290  0.09194021  0.11541561     1.06480
Mn927      Mn  0.00044323  0.89160818  0.05955931     1.48570
O928        O  0.97343831  0.12049762  0.08967526    -0.87520
Mn929      Mn  0.50243283  0.11118536  0.46225016     1.49560
O930        O  0.52999284  0.03919908  0.38647698    -0.91400
C931        C  0.95605713  0.94140486  0.43263833     1.19670
C932        C  0.53922766  0.08394447  0.39479541     1.11730
Mn933      Mn  0.97365590  0.99692357  0.50563881     1.80970
O934        O  0.52327117  0.94237462  0.08422255    -0.96550
Mn935      Mn  0.00186705  0.99052258  0.40968312     1.49260
C936        C  0.96543223  0.08489522  0.39395920     1.08250
Mn937      Mn  0.49986964  0.99589125  0.10273083     1.49930
C938        C  0.53789539  0.08875444  0.11761217     1.11160
O939        O  0.97791198  0.11660849  0.50453830    -1.02350
O940        O  0.52849819  0.83914198  0.04157229    -0.92010
C941        C  0.95546002  0.10711893  0.50406423     1.22440
O942        O  0.97709063  0.94237768  0.08215098    -1.02740
O943        O  0.53030894  0.83957500  0.47557760    -0.90140
O944        O  0.52849141  0.04421402  0.12589794    -0.89750
O945        O  0.53114236  0.11342478  0.42187234    -0.89770
Mn946      Mn  0.50213134  0.88879537  0.45444972     1.47860
O947        O  0.55415736  0.96636005  0.05051622    -0.78240
C948        C  0.54770772  0.10621528  0.00713521     1.15490
O949        O  0.94823274  0.96420360  0.46318788    -0.76980
O950        O  0.55486346  0.96560464  0.46610220    -0.76590
Mn951      Mn  0.00136576  0.11376708  0.04861381     1.51060
O952        O  0.97097694  0.04579383  0.12341998    -0.88940
O953        O  0.52548805  0.93810711  0.42941893    -0.96470
O954        O  0.52915708  0.11797963  0.09099689    -0.91480
C955        C  0.54791693  0.94347405  0.43474941     1.13280
C956        C  0.61453450  0.28395263  0.50537814     0.03180
C957        C  0.62300261  0.30492789  0.46954066    -0.12970
C958        C  0.63825451  0.34980949  0.46968045     0.00680
C959        C  0.64516172  0.37258432  0.50555218    -0.11490
C960        C  0.63769079  0.35106882  0.04136416     0.03170
C961        C  0.62200599  0.30698025  0.04128328    -0.10910
H962        H  0.61805394  0.28609768  0.44189016     0.08770
H963        H  0.65875923  0.40426790  0.50562215     0.06300
H964        H  0.61644737  0.28940929  0.06894096     0.06140
C965        C  0.88886909  0.28552195  0.50471003     0.03180
C966        C  0.88041293  0.30527844  0.04123029    -0.12970
C967        C  0.86431778  0.34864551  0.04243787     0.00680
C968        C  0.85620296  0.37065196  0.50729029    -0.11490
C969        C  0.86383104  0.35126536  0.47071148     0.03170
C970        C  0.88057958  0.30890346  0.46943807    -0.10910
H971        H  0.88608440  0.28672008  0.06845013     0.08770
H972        H  0.84190114  0.40071983  0.50849741     0.06300
H973        H  0.88642131  0.29295787  0.44127388     0.06140
C974        C  0.88632274  0.66537139  0.00563086     0.03180
C975        C  0.87527510  0.65066996  0.96950835    -0.12970
C976        C  0.85397391  0.61851366  0.96848689     0.00680
C977        C  0.84396650  0.59997331  0.00415955    -0.11490
C978        C  0.85402407  0.61580538  0.04076232     0.03170
C979        C  0.87562625  0.64740510  0.04112630    -0.10910
H980        H  0.88221966  0.66700195  0.44223254     0.08770
H981        H  0.82746662  0.57514937  0.00340957     0.06300
H982        H  0.88338828  0.66010720  0.06911510     0.06140
C983        C  0.61459108  0.66299140  0.00551401     0.03180
C984        C  0.62427186  0.64421985  0.46939207    -0.12970
C985        C  0.64440245  0.60890982  0.46867501     0.00680
C986        C  0.65349859  0.58923752  0.00460510    -0.11490
C987        C  0.64438861  0.60778634  0.04103373     0.03170
C988        C  0.62476538  0.64429614  0.04111613    -0.10910
H989        H  0.61703351  0.65902102  0.44180812     0.08770
H990        H  0.66895793  0.56178503  0.00424634     0.06300
H991        H  0.61858070  0.66094844  0.06885877     0.06140
O992        O  0.72314235  0.39337009  0.17141139    -0.88130
C993        C  0.78834769  0.42938210  0.36754734     1.11910
O994        O  0.75076839  0.48227562  0.21480114    -1.35930
O995        O  0.72347443  0.39656728  0.34138713    -0.89610
O996        O  0.72316946  0.46698916  0.13629729    -0.90280
O997        O  0.69676766  0.54354224  0.21206768    -0.79100
O998        O  0.72755374  0.39547768  0.25645441    -1.01190
C999        C  0.70387757  0.56722906  0.32783554     1.21960
O1000       O  0.74983638  0.57764545  0.25475208    -1.36080
Mn1001     Mn  0.77779205  0.51673539  0.25524035     1.82060
O1002       O  0.69659548  0.54549455  0.29645830    -0.78170
O1003       O  0.72168120  0.47224551  0.37438760    -0.87570
C1004       C  0.79571751  0.57059880  0.32825773     1.13040
C1005       C  0.71365110  0.42617791  0.36697002     1.07770
O1006       O  0.80369556  0.54834196  0.21335639    -0.79110
O1007       O  0.75050635  0.48403670  0.29611494    -1.32810
O1008       O  0.77353475  0.57203391  0.17788502    -0.98320
C1009       C  0.71268043  0.68696561  0.25402650     1.06480
Mn1010     Mn  0.75006319  0.52107737  0.35196203     1.48570
O1011       O  0.72041363  0.66977758  0.22095770    -0.87520
Mn1012     Mn  0.75109255  0.51701448  0.15863403     1.49560
O1013       O  0.77924686  0.39471822  0.17137395    -0.91400
C1014       C  0.70506161  0.40401168  0.25614198     1.19670
C1015       C  0.78896329  0.42394681  0.14559599     1.11730
Mn1016     Mn  0.72282484  0.51433479  0.25483801     1.80970
O1017       O  0.77314076  0.57415375  0.33227420    -0.96550
Mn1018     Mn  0.75126810  0.39883708  0.21309931     1.49260
C1019       C  0.71412706  0.42226975  0.14480306     1.08250
Mn1020     Mn  0.74972927  0.62260759  0.30718444     1.49930
C1021       C  0.78567264  0.68933307  0.25424062     1.11160
O1022       O  0.72708915  0.56873595  0.17762816    -1.02350
O1023       O  0.77895882  0.47419148  0.37504762    -0.92010
C1024       C  0.70456375  0.56353076  0.18058059     1.22440
O1025       O  0.72640073  0.57289585  0.33190668    -1.02740
O1026       O  0.77943435  0.39893178  0.34152371    -0.90140
O1027       O  0.77785876  0.67280301  0.28729177    -0.89750
O1028       O  0.78047241  0.46930809  0.13747747    -0.89770
Mn1029     Mn  0.75135120  0.40076957  0.29966921     1.47860
O1030       O  0.80336396  0.54963781  0.29696357    -0.78240
C1031       C  0.79609833  0.56880285  0.18196395     1.15490
O1032       O  0.69789774  0.45068759  0.25486435    -0.76980
O1033       O  0.80358649  0.45582660  0.25555891    -0.76590
Mn1034     Mn  0.74940296  0.62077917  0.20183560     1.51060
O1035       O  0.72192823  0.67326092  0.28695095    -0.88940
O1036       O  0.77515032  0.39736698  0.25651195    -0.96470
O1037       O  0.77654655  0.67461191  0.22129644    -0.91480
C1038       C  0.79740158  0.40856367  0.25660164     1.13280
C1039       C  0.63935025  0.22413428  0.25535654     0.03180
C1040       C  0.63229014  0.20162957  0.21894594    -0.12970
C1041       C  0.61693782  0.15681800  0.21804565     0.00680
C1042       C  0.60916759  0.13482099  0.25348147    -0.11490
C1043       C  0.61338168  0.16050878  0.28920881     0.03170
C1044       C  0.62931822  0.20411709  0.29056222    -0.10910
H1045       H  0.63806136  0.21972049  0.19159914     0.08770
H1046       H  0.59604283  0.10225459  0.25295604     0.06300
H1047       H  0.63248044  0.22449565  0.31824264     0.06140
C1048       C  0.86594681  0.84247237  0.25506200     0.03180
C1049       C  0.87690475  0.85779835  0.21920927    -0.12970
C1050       C  0.89814001  0.89020711  0.21870636     0.00680
C1051       C  0.90812857  0.90818578  0.25486334    -0.11490
C1052       C  0.89832642  0.89114722  0.29116022     0.03170
C1053       C  0.87677472  0.85949535  0.29088999    -0.10910
H1054       H  0.86984123  0.84190485  0.19167798     0.08770
H1055       H  0.92433777  0.93382209  0.25476199     0.06300
H1056       H  0.86906236  0.84624971  0.31861859     0.06140
C1057       C  0.63492875  0.84460708  0.25690134     0.03180
C1058       C  0.62455743  0.86391605  0.22169297    -0.12970
C1059       C  0.60428804  0.89897211  0.22245465     0.00680
C1060       C  0.59495062  0.91588289  0.25931746    -0.11490
C1061       C  0.60490961  0.89639998  0.29462610     0.03170
C1062       C  0.62471140  0.86065358  0.29317322    -0.10910
H1063       H  0.63153734  0.84967477  0.19369265     0.08770
H1064       H  0.57904068  0.94214573  0.26057244     0.06300
H1065       H  0.63136743  0.84356612  0.32037528     0.06140
C1066       C  0.86765519  0.23877650  0.25886680     0.03180
C1067       C  0.87613617  0.22047025  0.22209879    -0.12970
C1068       C  0.89232015  0.17762205  0.22031061     0.00680
C1069       C  0.90015222  0.15381644  0.25498183    -0.11490
C1070       C  0.89248486  0.17235478  0.29171574     0.03170
C1071       C  0.87595262  0.21482910  0.29376440    -0.10910
H1072       H  0.87021478  0.23943718  0.19516389     0.08770
H1073       H  0.91391147  0.12262683  0.25334731     0.06300
H1074       H  0.87008184  0.22996642  0.32217742     0.06140
C1075       C  0.65510764  0.80452227  0.25584875    -0.05410
C1076       C  0.65340276  0.76186651  0.22946920    -0.32840
C1077       C  0.67192762  0.72309177  0.22855195     0.36410
C1078       C  0.69250042  0.72631912  0.25446469    -0.05770
C1079       C  0.69418833  0.76865614  0.28087285    -0.32740
C1080       C  0.67585571  0.80773086  0.28155078     0.36310
H1081       H  0.63745102  0.75809059  0.20987876     0.16680
O1082       O  0.66954353  0.68190189  0.20264771    -0.60240
H1083       H  0.71015139  0.77218906  0.30049432     0.16700
O1084       O  0.67905810  0.85031479  0.30596612    -0.60340
H1085       H  0.67682427  0.83683787  0.33309551     0.43690
H1086       H  0.66087506  0.65398169  0.21764641     0.43650
C1087       C  0.80628441  0.72799782  0.25426472    -0.05410
C1088       C  0.80567744  0.77017840  0.22797427    -0.32840
C1089       C  0.82452491  0.80847465  0.22859345     0.36410
C1090       C  0.84486367  0.80416544  0.25505803    -0.05770
C1091       C  0.84550672  0.76146813  0.28101952    -0.32740
C1092       C  0.82643717  0.72381590  0.28087324     0.36310
H1093       H  0.79018235  0.77421327  0.20755886     0.16680
O1094       O  0.82262555  0.85034718  0.20362518    -0.60240
H1095       H  0.86113387  0.75655914  0.30104813     0.16700
O1096       O  0.82798480  0.68244574  0.30633758    -0.60340
H1097       H  0.83675714  0.65447246  0.29140211     0.43690
H1098       H  0.81412959  0.87809870  0.21917460     0.43650
C1099       C  0.65564830  0.27092074  0.25654957    -0.05410
C1100       C  0.64804661  0.31748182  0.23825927    -0.32840
C1101       C  0.66357178  0.36192937  0.23880498     0.36410
C1102       C  0.68725937  0.35962295  0.25712632    -0.05770
C1103       C  0.69468743  0.31293094  0.27546407    -0.32740
C1104       C  0.67893237  0.26916448  0.27582654     0.36310
H1105       H  0.63001955  0.31934049  0.22361592     0.16680
O1106       O  0.65561363  0.40694320  0.22083382    -0.60240
H1107       H  0.71282755  0.31030221  0.28968267     0.16700
O1108       O  0.68689000  0.22404197  0.29365040    -0.60340
H1109       H  0.68311068  0.22898889  0.32203039     0.43690
H1110       H  0.65954214  0.40203890  0.19252081     0.43650
C1111       C  0.81622625  0.36680434  0.25862342    -0.05410
C1112       C  0.80985554  0.31957146  0.27715215    -0.32840
C1113       C  0.82679416  0.27818703  0.27845089     0.36410
C1114       C  0.85037055  0.28340484  0.26055046    -0.05770
C1115       C  0.85695997  0.33074336  0.24241446    -0.32740
C1116       C  0.84011442  0.37255738  0.24159895     0.36310
H1117       H  0.79160084  0.31457697  0.29057083     0.16680
O1118       O  0.81990065  0.23232450  0.29638770    -0.60240
H1119       H  0.87513817  0.33506572  0.22860402     0.16700
O1120       O  0.84696494  0.41826370  0.22340295    -0.60340
H1121       H  0.84311764  0.41261458  0.19511007     0.43690
H1122       H  0.81228028  0.21055603  0.27521407     0.43650
C1123       C  0.65865184  0.59655620  0.07794416    -0.05410
C1124       C  0.68468747  0.60302660  0.07722989    -0.32840
C1125       C  0.69937668  0.59353147  0.11037858     0.36410
C1126       C  0.68826139  0.57723705  0.14623063    -0.05770
C1127       C  0.66200105  0.57152712  0.14740006    -0.32740
C1128       C  0.64719179  0.58148039  0.11367656     0.36310
H1129       H  0.69390183  0.61598340  0.05056364     0.16680
O1130       O  0.72479893  0.60039183  0.10702681    -0.60240
H1131       H  0.65297394  0.55861867  0.17421503     0.16700
O1132       O  0.62176040  0.57404898  0.11542724    -0.60340
H1133       H  0.61522541  0.60470727  0.13024153     0.43690
H1134       H  0.73112376  0.56735051  0.09517125     0.43650
C1135       C  0.65872112  0.59936208  0.43146820    -0.05410
C1136       C  0.64690450  0.58203713  0.39653235    -0.32840
C1137       C  0.66087784  0.57284296  0.36178966     0.36410
C1138       C  0.68706631  0.58138345  0.36156030    -0.05770
C1139       C  0.69837459  0.60092165  0.39618342    -0.32740
C1140       C  0.68465428  0.60950908  0.43059266     0.36310
H1141       H  0.62691843  0.57456979  0.39642705     0.16680
O1142       O  0.64887417  0.55395017  0.32890480    -0.60240
H1143       H  0.71832210  0.60884389  0.39712734     0.16700
O1144       O  0.69672222  0.62985186  0.46302270    -0.60340
H1145       H  0.70710181  0.60082688  0.47341297     0.43690
H1146       H  0.64417921  0.58548875  0.31366338     0.43650
C1147       C  0.84003614  0.60510981  0.07808176    -0.05410
C1148       C  0.85215312  0.58541369  0.11185663    -0.32840
C1149       C  0.83861116  0.57477117  0.14671618     0.36410
C1150       C  0.81258299  0.58450174  0.14835023    -0.05770
C1151       C  0.80100169  0.60651173  0.11504533    -0.32740
C1152       C  0.81427585  0.61643684  0.08045428     0.36310
H1153       H  0.87202908  0.57706325  0.11090308     0.16680
O1154       O  0.85090883  0.55408461  0.17849514    -0.60240
H1155       H  0.78117444  0.61550838  0.11531938     0.16700
O1156       O  0.80198926  0.63937655  0.04949471    -0.60340
H1157       H  0.79060597  0.61192759  0.03883207     0.43690
H1158       H  0.85098355  0.51567445  0.17383566     0.43650
C1159       C  0.81236682  0.58805915  0.36122252    -0.05410
C1160       C  0.80112419  0.61253814  0.39399924    -0.32840
C1161       C  0.81465319  0.62337392  0.42827820     0.36410
C1162       C  0.84015386  0.61001957  0.43086570    -0.05770
C1163       C  0.85207900  0.58892301  0.39734948    -0.32740
C1164       C  0.83832594  0.57740306  0.36278866     0.36310
H1165       H  0.78136537  0.62216778  0.39367469     0.16680
O1166       O  0.80255319  0.64651898  0.45944543    -0.60040
H1167       H  0.87181845  0.57930179  0.39855577     0.16700
O1168       O  0.85024592  0.55420242  0.33149859    -0.60340
H1169       H  0.84935324  0.51601299  0.33666311     0.43690
H1170       H  0.80625591  0.68448977  0.45715366     0.43650
C1171       C  0.85155633  0.36674284  0.07862292    -0.05410
C1172       C  0.83602751  0.33133299  0.09840518    -0.32840
C1173       C  0.81616814  0.34939036  0.12159678     0.36410
C1174       C  0.81132747  0.40380338  0.12464661    -0.05770
C1175       C  0.82839928  0.43908489  0.10795447    -0.32740
C1176       C  0.84866375  0.42096400  0.08565235     0.36310
H1177       H  0.83784479  0.28958922  0.09305059     0.16680
O1178       O  0.80036826  0.31327229  0.13820004    -0.60240
H1179       H  0.82559358  0.48083469  0.11107373     0.16700
O1180       O  0.86480453  0.45636072  0.06877138    -0.60340
H1181       H  0.85467225  0.47646346  0.04957040     0.43690
H1182       H  0.80836031  0.30382704  0.16358349     0.43650
C1183       C  0.81073497  0.41103311  0.38953235    -0.05410
C1184       C  0.81818048  0.35816513  0.38640643    -0.32840
C1185       C  0.83755690  0.33836770  0.40980881     0.36410
C1186       C  0.85067134  0.37209485  0.43559570    -0.05770
C1187       C  0.84539276  0.42605799  0.43467497    -0.32740
C1188       C  0.82489289  0.44503510  0.41366120     0.36310
H1189       H  0.80792944  0.33104919  0.36769153     0.16680
O1190       O  0.84208092  0.28546670  0.40943356    -0.60240
H1191       H  0.85543697  0.45286338  0.45398070     0.16700
O1192       O  0.81817297  0.49633519  0.41866969    -0.60340
H1193       H  0.80844627  0.49739448  0.44354121     0.43690
H1194       H  0.83044043  0.27052078  0.42918768     0.43650
C1195       C  0.65111611  0.36894003  0.07700298    -0.05410
C1196       C  0.66573477  0.33254286  0.09749116    -0.32840
C1197       C  0.68593642  0.34928972  0.12061509     0.36410
C1198       C  0.69174467  0.40327175  0.12336700    -0.05770
C1199       C  0.67561194  0.43963213  0.10578369    -0.32740
C1200       C  0.65510288  0.42289843  0.08352048     0.36310
H1201       H  0.66299590  0.29087827  0.09270191     0.16680
O1202       O  0.70074407  0.31230830  0.13823982    -0.60240
H1203       H  0.67931043  0.48115026  0.10827043     0.16700
O1204       O  0.64043843  0.45948021  0.06513286    -0.60340
H1205       H  0.62600494  0.46497900  0.08302739     0.43690
H1206       H  0.71388799  0.30387299  0.11858729     0.43650
C1207       C  0.65168706  0.36805107  0.43438143    -0.05410
C1208       C  0.66761532  0.33280486  0.41508116    -0.32840
C1209       C  0.68755964  0.35113562  0.39236964     0.36410
C1210       C  0.69169149  0.40567861  0.38849468    -0.05770
C1211       C  0.67440895  0.44066436  0.40511997    -0.32740
C1212       C  0.65426822  0.42220759  0.42731982     0.36310
H1213       H  0.66606303  0.29110562  0.42056052     0.16680
O1214       O  0.70379852  0.31530573  0.37634742    -0.60240
H1215       H  0.67691007  0.48247451  0.40189845     0.16700
O1216       O  0.63848580  0.45755854  0.44500624    -0.60340
H1217       H  0.62467826  0.46272827  0.42585704     0.43690
H1218       H  0.71694704  0.31018166  0.39663435     0.43650
C1219       C  0.55882580  0.10552617  0.36981419    -0.05410
C1220       C  0.58414272  0.10455888  0.38127866    -0.32840
C1221       C  0.60263740  0.12543241  0.35647197     0.36410
C1222       C  0.59546699  0.14890713  0.32086113    -0.05770
C1223       C  0.56991445  0.15376502  0.31159679    -0.32740
C1224       C  0.55171086  0.13180117  0.33554645     0.36310
H1225       H  0.58953609  0.08685248  0.40889814     0.16680
O1226       O  0.62743421  0.12159991  0.36667980    -0.60240
H1227       H  0.56416170  0.17228879  0.28437892     0.16700
O1228       O  0.52697217  0.13505500  0.32476212    -0.60340
H1229       H  0.52060881  0.16713093  0.33797650     0.43690
H1230       H  0.63362202  0.08978948  0.35293261     0.43650
C1231       C  0.56051379  0.10726199  0.13887224    -0.05410
C1232       C  0.57778485  0.07068935  0.15320354    -0.32840
C1233       C  0.59893071  0.08694249  0.17448112     0.36410
C1234       C  0.60269303  0.14061793  0.18264475    -0.05770
C1235       C  0.58653776  0.17745220  0.16570930    -0.32740
C1236       C  0.56564791  0.16123583  0.14379740     0.36310
H1237       H  0.57454474  0.02931623  0.14884633     0.16680
O1238       O  0.61521597  0.05021052  0.18909419    -0.60240
H1239       H  0.58876634  0.21879005  0.17245018     0.16700
O1240       O  0.54913327  0.19833869  0.13058361    -0.60340
H1241       H  0.55788721  0.21631951  0.10872444     0.43690
H1242       H  0.60549450  0.02945131  0.20843973     0.43650
C1243       C  0.56536808  0.15089673  0.00787245    -0.05410
C1244       C  0.58993032  0.14512594  0.49371404    -0.32840
C1245       C  0.60617113  0.18837341  0.49223891     0.36410
C1246       C  0.59800686  0.23772754  0.50575808    -0.05770
C1247       C  0.57378895  0.24321872  0.02071701    -0.32740
C1248       C  0.55736392  0.20068112  0.02126798     0.36310
H1249       H  0.59636435  0.10737700  0.48308191     0.16680
O1250       O  0.62992437  0.18210065  0.47762308    -0.60240
H1251       H  0.56744216  0.28100881  0.03146442     0.16700
O1252       O  0.53365224  0.20807946  0.03582381    -0.60340
H1253       H  0.52382639  0.22238602  0.01353153     0.43690
H1254       H  0.64061767  0.17564474  0.50100526     0.43650
C1255       C  0.90521410  0.15048352  0.32643887    -0.05410
C1256       C  0.90797159  0.09584913  0.32853927    -0.32840
C1257       C  0.92754700  0.07379398  0.34998396     0.36410
C1258       C  0.94379986  0.10618164  0.37196647    -0.05770
C1259       C  0.93925856  0.16059151  0.37308619    -0.32740
C1260       C  0.92032445  0.18283626  0.35028303     0.36310
H1261       H  0.89645422  0.07045550  0.31022815     0.16680
O1262       O  0.93115802  0.02081270  0.34783518    -0.60240
H1263       H  0.95131755  0.18662512  0.38990914     0.16700
O1264       O  0.91868308  0.23639224  0.34811014    -0.60340
H1265       H  0.90854478  0.24701177  0.37126910     0.43690
H1266       H  0.94046290  0.01481430  0.32294306     0.43650
C1267       C  0.90425920  0.15979073  0.18374228    -0.05410
C1268       C  0.90405481  0.10593673  0.17552338    -0.32840
C1269       C  0.92277133  0.08364187  0.15242699     0.36410
C1270       C  0.94192993  0.11499341  0.13686256    -0.05770
C1271       C  0.94035710  0.16979795  0.14132220    -0.32740
C1272       C  0.92162373  0.19229324  0.16460051     0.36310
H1273       H  0.89051276  0.08055529  0.18971137     0.16680
O1274       O  0.92199391  0.03118958  0.14494679    -0.60240
H1275       H  0.95448452  0.19513509  0.12861842     0.16700
O1276       O  0.92222301  0.24516642  0.17205089    -0.60340
H1277       H  0.91155527  0.26091206  0.15133053     0.43690
H1278       H  0.91242002  0.02874676  0.11997813     0.43650
C1279       C  0.90547804  0.23907174  0.50333896    -0.05410
C1280       C  0.89859787  0.19291122  0.02303851    -0.32840
C1281       C  0.91422608  0.14878461  0.02244291     0.36410
C1282       C  0.93740640  0.15091807  0.50274138    -0.05770
C1283       C  0.94418866  0.19706789  0.48298992    -0.32740
C1284       C  0.92838711  0.24065467  0.48289891     0.36310
H1285       H  0.88101791  0.19108214  0.03890294     0.16680
O1286       O  0.90729381  0.10494072  0.04296916    -0.60240
H1287       H  0.96196362  0.19954428  0.46772499     0.16700
O1288       O  0.93580621  0.28508478  0.46351925    -0.60340
H1289       H  0.94495153  0.30630260  0.48347922     0.43690
H1290       H  0.89669268  0.08433808  0.02448632     0.43650
C1291       C  0.91226620  0.90148649  0.32877882    -0.05410
C1292       C  0.89996858  0.91988948  0.36292924    -0.32840
C1293       C  0.91349475  0.93151461  0.39779043     0.36410
C1294       C  0.93969943  0.92385392  0.39913376    -0.05770
C1295       C  0.95145306  0.90232208  0.36564316    -0.32740
C1296       C  0.93818636  0.89166058  0.33096860     0.36310
H1297       H  0.87997252  0.92693543  0.36218599     0.16680
O1298       O  0.90100535  0.95139361  0.42979695    -0.60240
H1299       H  0.97142401  0.89480296  0.36570041     0.16700
O1300       O  0.95070859  0.86995089  0.29960715    -0.60340
H1301       H  0.96178975  0.89814962  0.28957063     0.43690
H1302       H  0.90045799  0.98980883  0.42555495     0.43650
C1303       C  0.93840609  0.92505535  0.11096611    -0.05410
C1304       C  0.95068665  0.90553513  0.14457249    -0.32840
C1305       C  0.93768723  0.89289423  0.17874805     0.36410
C1306       C  0.91162637  0.90029401  0.18090365    -0.05770
C1307       C  0.89880118  0.91592734  0.14653003    -0.32740
C1308       C  0.91196770  0.92758065  0.11144142     0.36310
H1309       H  0.97085208  0.90092331  0.14497025     0.16680
O1310       O  0.95086064  0.87326453  0.21005891    -0.60240
H1311       H  0.87865122  0.92075934  0.14721287     0.16700
O1312       O  0.89913162  0.94582189  0.07924666    -0.60340
H1313       H  0.88726961  0.91750455  0.07167940     0.43690
H1314       H  0.94919473  0.83463803  0.20779572     0.43650
C1315       C  0.94485930  0.78266123  0.00623594    -0.05410
C1316       C  0.94577114  0.74074135  0.97932800    -0.32840
C1317       C  0.92736010  0.70147484  0.97955439     0.36410
C1318       C  0.90714745  0.70438915  0.00631178    -0.05770
C1319       C  0.90622896  0.74669670  0.03298036    -0.32740
C1320       C  0.92485286  0.78533494  0.03316751     0.36310
H1321       H  0.96117986  0.73774422  0.45860005     0.16680
O1322       O  0.92953516  0.66009391  0.95382773    -0.60240
H1323       H  0.89066423  0.75063290  0.05322105     0.16700
O1324       O  0.92284277  0.82647862  0.05903796    -0.60340
H1325       H  0.91649923  0.85591097  0.04294333     0.43690
H1326       H  0.93840444  0.63249650  0.96879989     0.43650
C1327       C  0.59223888  0.90700686  0.33265844    -0.05410
C1328       C  0.57370251  0.87216312  0.34549481    -0.32840
C1329       C  0.56015156  0.88224900  0.37999009     0.36410
C1330       C  0.56545380  0.92717596  0.40304531    -0.05770
C1331       C  0.58512583  0.96040119  0.39142946    -0.32740
C1332       C  0.59818123  0.95108897  0.35606109     0.36310
H1333       H  0.56922059  0.83767598  0.32803401     0.16680
O1334       O  0.54165632  0.84788334  0.39095776    -0.60240
H1335       H  0.58946510  0.99498363  0.40871343     0.16700
O1336       O  0.61640623  0.98557362  0.34432485    -0.60340
H1337       H  0.60784693  0.01002480  0.32614025     0.43690
H1338       H  0.52692052  0.85698766  0.37455084     0.43650
C1339       C  0.56163544  0.93168899  0.11639197    -0.05410
C1340       C  0.58792745  0.93620415  0.11580787    -0.32840
C1341       C  0.60228885  0.92609459  0.14994729     0.36410
C1342       C  0.59036139  0.91140589  0.18543704    -0.05770
C1343       C  0.56426919  0.90600067  0.18554935    -0.32740
C1344       C  0.55000471  0.91605599  0.15202688     0.36310
H1345       H  0.59732761  0.94877254  0.08921736     0.16680
O1346       O  0.62775551  0.93332555  0.14888598    -0.60240
H1347       H  0.55467161  0.89334610  0.21196700     0.16700
O1348       O  0.52449235  0.91030185  0.15477152    -0.60340
H1349       H  0.51838075  0.94365490  0.16640986     0.43690
H1350       H  0.63432104  0.90388893  0.13275284     0.43650
C1351       C  0.55793081  0.78385924  0.00964713    -0.05410
C1352       C  0.57773109  0.78726031  0.98261923    -0.32840
C1353       C  0.59648489  0.74898053  0.98143101     0.36410
C1354       C  0.59515223  0.70495475  0.00647446    -0.05770
C1355       C  0.57536060  0.70195709  0.03371479    -0.32740
C1356       C  0.55707223  0.74119949  0.03576106     0.36310
H1357       H  0.57887273  0.82023364  0.96269350     0.16680
O1358       O  0.61626684  0.75572650  0.95620245    -0.60240
H1359       H  0.57387197  0.66866883  0.05325460     0.16700
O1360       O  0.53767601  0.73596893  0.06192809    -0.60340
H1361       H  0.04404873  0.75088582  0.08707566     0.43690
H1362       H  0.62963073  0.77235633  0.97235121     0.43650
O1363       O  0.97314100  0.03842620  0.88728189    -0.88130
C1364       C  0.53777721  0.82351784  0.50899220     1.11910
O1365       O  0.50174306  0.02802288  0.96547412    -1.35930
O1366       O  0.97435125  0.83663025  0.97374492    -0.89610
O1367       O  0.97544723  0.11495057  0.91917315    -0.90280
O1368       O  0.94851198  0.06008960  0.00475471    -0.79100
O1369       O  0.97866142  0.93729060  0.92925354    -1.01190
C1370       C  0.95455950  0.94475287  0.57817478     1.21960
O1371       O  0.00081906  0.03037760  0.54673027    -1.36080
Mn1372     Mn  0.52880874  0.99699897  0.50722650     1.82060
O1373       O  0.94691286  0.96580542  0.54701194    -0.78170
O1374       O  0.97252039  0.84029443  0.53959392    -0.87570
C1375       C  0.54586116  0.94636456  0.58170566     1.13040
C1376       C  0.96507027  0.82250236  0.50649811     1.07770
O1377       O  0.55474089  0.05946509  0.50732088    -0.79110
O1378       O  0.50121518  0.93459838  0.50665421    -1.32810
O1379       O  0.52530455  0.11441162  0.50622929    -0.98320
C1380       C  0.96333196  0.09192931  0.61542581     1.06480
Mn1381     Mn  0.00044972  0.89161331  0.55954855     1.48570
O1382       O  0.97343734  0.12049261  0.58968917    -0.87520
Mn1383     Mn  0.50243048  0.11116227  0.96223836     1.49560
O1384       O  0.52998127  0.03915473  0.88646923    -0.91400
C1385       C  0.95604625  0.94138210  0.93264458     1.19670
C1386       C  0.53922080  0.08389679  0.89478461     1.11730
Mn1387     Mn  0.97365056  0.99691470  0.00563810     1.80970
O1388       O  0.52327661  0.94237832  0.58421938    -0.96550
Mn1389     Mn  0.00185683  0.99048798  0.90968340     1.49260
C1390       C  0.96542617  0.08486577  0.89395244     1.08250
Mn1391     Mn  0.49987402  0.99589018  0.60273176     1.49930
C1392       C  0.53789898  0.08875217  0.61761913     1.11160
O1393       O  0.97791288  0.11659991  0.00452489    -1.02350
O1394       O  0.52850566  0.83915585  0.54155755    -0.92010
C1395       C  0.95546057  0.10711372  0.00405318     1.22440
O1396       O  0.97709560  0.94237522  0.58214488    -1.02740
O1397       O  0.53029562  0.83954679  0.97559189    -0.90140
O1398       O  0.52849482  0.04421133  0.62590308    -0.89750
O1399       O  0.53113969  0.11338406  0.92186039    -0.89770
Mn1400     Mn  0.50211813  0.88876604  0.95446223     1.47860
O1401       O  0.55416369  0.96637076  0.55051862    -0.78240
C1402       C  0.54770862  0.10622788  0.50714384     1.15490
O1403       O  0.94822262  0.96419052  0.96319086    -0.76980
O1404       O  0.55485347  0.96557717  0.96609955    -0.76590
Mn1405     Mn  0.00136481  0.11377061  0.54862730     1.51060
O1406       O  0.97097705  0.04578221  0.62342566    -0.88940
O1407       O  0.52547633  0.93807029  0.92942202    -0.96470
O1408       O  0.52916015  0.11798109  0.59100673    -0.91480
C1409       C  0.54790562  0.94343918  0.93475021     1.13280
C1410       C  0.61454638  0.28393967  0.00540391     0.03180
C1411       C  0.62300684  0.30491833  0.96956208    -0.12970
C1412       C  0.63825595  0.34980524  0.96969362     0.00680
C1413       C  0.64516779  0.37258393  0.00556137    -0.11490
C1414       C  0.63767334  0.35107235  0.54135047     0.03170
C1415       C  0.62198590  0.30699115  0.54126070    -0.10910
H1416       H  0.61805446  0.28608637  0.94191391     0.08770
H1417       H  0.65876265  0.40427250  0.00562347     0.06300
H1418       H  0.61641938  0.28942223  0.56891534     0.06140
C1419       C  0.88887280  0.28551898  0.00468443     0.03180
C1420       C  0.88040862  0.30527209  0.54125758    -0.12970
C1421       C  0.86432365  0.34865562  0.54247240     0.00680
C1422       C  0.85618436  0.37060656  0.00725071    -0.11490
C1423       C  0.86382548  0.35123662  0.97067566     0.03170
C1424       C  0.88058184  0.30888863  0.96940810    -0.10910
H1425       H  0.88607022  0.28669213  0.56847412     0.08770
H1426       H  0.84187009  0.40064846  0.00844998     0.06300
H1427       H  0.88642920  0.29294549  0.94124614     0.06140
C1428       C  0.88638169  0.66530594  0.50562803     0.03180
C1429       C  0.87530058  0.65063187  0.46952548    -0.12970
C1430       C  0.85397689  0.61853426  0.46854137     0.00680
C1431       C  0.84398579  0.60002234  0.50423421    -0.11490
C1432       C  0.85410821  0.61575981  0.54081713     0.03170
C1433       C  0.87572325  0.64731365  0.54114025    -0.10910
H1434       H  0.88220797  0.66704068  0.94222426     0.08770
H1435       H  0.82741736  0.57537453  0.50354237     0.06300
H1436       H  0.88351323  0.66000621  0.56911200     0.06140
C1437       C  0.61457629  0.66296603  0.50550471     0.03180
C1438       C  0.62428581  0.64424806  0.96939962    -0.12970
C1439       C  0.64442121  0.60894957  0.96867907     0.00680
C1440       C  0.65347342  0.58918977  0.50460290    -0.11490
C1441       C  0.64436239  0.60774265  0.54103031     0.03170
C1442       C  0.62474410  0.64426298  0.54110876    -0.10910
H1443       H  0.61704223  0.65904137  0.94181667     0.08770
H1444       H  0.66893022  0.56173098  0.50424708     0.06300
H1445       H  0.61855948  0.66091897  0.56885023     0.06140
O1446       O  0.72311351  0.39333012  0.67141700    -0.88130
C1447       C  0.78834499  0.42936923  0.86752813     1.11910
O1448       O  0.75074680  0.48224206  0.71478600    -1.35930
O1449       O  0.72346942  0.39656469  0.84139214    -0.89610
O1450       O  0.72313605  0.46694669  0.63630058    -0.90280
O1451       O  0.69674835  0.54352195  0.71206880    -0.79100
O1452       O  0.72753676  0.39545851  0.75645858    -1.01190
C1453       C  0.70388012  0.56723106  0.82782965     1.21960
O1454       O  0.74982775  0.57761796  0.75472756    -1.36080
Mn1455     Mn  0.77777857  0.51670278  0.75520792     1.82060
O1456       O  0.69659242  0.54549062  0.79645800    -0.78170
O1457       O  0.72167963  0.47224946  0.87438446    -0.87570
C1458       C  0.79572413  0.57056145  0.82821064     1.13040
C1459       C  0.71364843  0.42617997  0.86697415     1.07770
O1460       O  0.80367380  0.54829653  0.71330568    -0.79110
O1461       O  0.75049899  0.48401846  0.79610034    -1.32810
O1462       O  0.77351000  0.57197778  0.67784014    -0.98320
C1463       C  0.71268260  0.68695067  0.75401037     1.06480
Mn1464     Mn  0.75006496  0.52106838  0.85194509     1.48570
O1465       O  0.72041113  0.66975818  0.72093997    -0.87520
Mn1466     Mn  0.75106268  0.51696831  0.65861417     1.49560
O1467       O  0.77922122  0.39467916  0.67136652    -0.91400
C1468       C  0.70504501  0.40399632  0.75615439     1.19670
C1469       C  0.78893642  0.42390540  0.64558577     1.11730
Mn1470     Mn  0.72281216  0.51431507  0.75483115     1.80970
O1471       O  0.77314801  0.57412996  0.83224375    -0.96550
Mn1472     Mn  0.75124539  0.39880359  0.71309545     1.49260
C1473       C  0.71409400  0.42223080  0.64481275     1.08250
Mn1474     Mn  0.74973451  0.62258706  0.80715756     1.49930
C1475       C  0.78567852  0.68928350  0.75419359     1.11160
O1476       O  0.72706620  0.56870152  0.67761620    -1.02350
O1477       O  0.77895782  0.47417922  0.87502846    -0.92010
C1478       C  0.70454076  0.56350505  0.68057751     1.22440
O1479       O  0.72640435  0.57289155  0.83189365    -1.02740
O1480       O  0.77942875  0.39891732  0.84150836    -0.90140
O1481       O  0.77786466  0.67276567  0.78724802    -0.89750
O1482       O  0.78044116  0.46925799  0.63745432    -0.89770
Mn1483     Mn  0.75134035  0.40075263  0.79966423     1.47860
O1484       O  0.80336045  0.54959717  0.79691260    -0.78240
C1485       C  0.79607272  0.56871732  0.68189992     1.15490
O1486       O  0.69788223  0.45067297  0.75487480    -0.76980
O1487       O  0.80357061  0.45579157  0.75552258    -0.76590
Mn1488     Mn  0.74939108  0.62074128  0.70180657     1.51060
O1489       O  0.72193399  0.67324684  0.78693239    -0.88940
O1490       O  0.77513366  0.39733577  0.75650024    -0.96470
O1491       O  0.77654739  0.67456151  0.72125225    -0.91480
C1492       C  0.79738529  0.40853015  0.75658054     1.13280
C1493       C  0.63934661  0.22410468  0.75537402     0.03180
C1494       C  0.63229270  0.20160683  0.71895845    -0.12970
C1495       C  0.61694720  0.15678590  0.71804746     0.00680
C1496       C  0.60917995  0.13476953  0.75347816    -0.11490
C1497       C  0.61338545  0.16045194  0.78921016     0.03170
C1498       C  0.62931486  0.20407094  0.79057419    -0.10910
H1499       H  0.63806229  0.21971145  0.69161593     0.08770
H1500       H  0.59606030  0.10219438  0.75294513     0.06300
H1501       H  0.63247071  0.22444526  0.81825813     0.06140
C1502       C  0.86595451  0.84242219  0.75504273     0.03180
C1503       C  0.87691505  0.85775870  0.71919484    -0.12970
C1504       C  0.89814700  0.89017674  0.71870005     0.00680
C1505       C  0.90813055  0.90815287  0.75486146    -0.11490
C1506       C  0.89832632  0.89110456  0.79115486     0.03170
C1507       C  0.87677747  0.85944283  0.79087580    -0.10910
H1508       H  0.86985591  0.84186693  0.69166023     0.08770
H1509       H  0.92433725  0.93379619  0.75476649     0.06300
H1510       H  0.86906338  0.84618937  0.81860105     0.06140
C1511       C  0.63492534  0.84458226  0.75690449     0.03180
C1512       C  0.62455565  0.86389595  0.72169637    -0.12970
C1513       C  0.60428562  0.89895019  0.72245787     0.00680
C1514       C  0.59494570  0.91585448  0.75932084    -0.11490
C1515       C  0.60490290  0.89636709  0.79462941     0.03170
C1516       C  0.62470570  0.86062262  0.79317645    -0.10910
H1517       H  0.63153750  0.84965961  0.69369587     0.08770
H1518       H  0.57903554  0.94211673  0.76057577     0.06300
H1519       H  0.63136091  0.84353244  0.82037801     0.06140
C1520       C  0.86764333  0.23874848  0.75886948     0.03180
C1521       C  0.87612566  0.22044119  0.72210247    -0.12970
C1522       C  0.89230923  0.17759201  0.72031582     0.00680
C1523       C  0.90013913  0.15378543  0.75498779    -0.11490
C1524       C  0.89247142  0.17232547  0.79172106     0.03170
C1525       C  0.87593962  0.21480135  0.79376821    -0.10910
H1526       H  0.87020585  0.23940866  0.69516695     0.08770
H1527       H  0.91389814  0.12259521  0.75335466     0.06300
H1528       H  0.87006854  0.22994010  0.82218064     0.06140
C1529       C  0.65510513  0.80449911  0.75584981    -0.05410
C1530       C  0.65340198  0.76184905  0.72946489    -0.32840
C1531       C  0.67192850  0.72307819  0.72854185     0.36410
C1532       C  0.69250195  0.72630371  0.75445354    -0.05770
C1533       C  0.69418778  0.76863427  0.78086823    -0.32740
C1534       C  0.67585298  0.80770489  0.78155249     0.36310
H1535       H  0.63745024  0.75807453  0.70987426     0.16680
O1536       O  0.66954513  0.68189312  0.70263315    -0.60240
H1537       H  0.71015060  0.77216516  0.80049034     0.16700
O1538       O  0.67905304  0.85028251  0.80597475    -0.60340
H1539       H  0.67681806  0.83679774  0.83310168     0.43690
H1540       H  0.66087711  0.65396944  0.71762885     0.43650
C1541       C  0.80629540  0.72793730  0.75421390    -0.05410
C1542       C  0.80569168  0.77011983  0.72792529    -0.32840
C1543       C  0.82453822  0.80841837  0.72855406     0.36410
C1544       C  0.84487317  0.80410967  0.75502660    -0.05770
C1545       C  0.84551436  0.76140746  0.78098335    -0.32740
C1546       C  0.82644578  0.72375271  0.78082741     0.36310
H1547       H  0.79019858  0.77415729  0.70750648     0.16680
O1548       O  0.82264063  0.85029459  0.70358894    -0.60240
H1549       H  0.86113871  0.75649826  0.80101733     0.16700
O1550       O  0.82799032  0.68238134  0.80629136    -0.60340
H1551       H  0.83676822  0.65441087  0.79136094     0.43690
H1552       H  0.81414141  0.87804214  0.71913791     0.43650
C1553       C  0.65563759  0.27090036  0.75657695    -0.05410
C1554       C  0.64803199  0.31745921  0.73828744    -0.32840
C1555       C  0.66355415  0.36191097  0.73883213     0.36410
C1556       C  0.68724252  0.35961002  0.75715080    -0.05770
C1557       C  0.69467302  0.31292241  0.77549233    -0.32740
C1558       C  0.67892087  0.26915209  0.77585632     0.36310
H1559       H  0.63000510  0.31931151  0.72364307     0.16680
O1560       O  0.65559318  0.40692219  0.72086035    -0.60240
H1561       H  0.71281370  0.31029876  0.78970973     0.16700
O1562       O  0.68688158  0.22403245  0.79368088    -0.60340
H1563       H  0.68310124  0.22897848  0.82206062     0.43690
H1564       H  0.65951853  0.40201522  0.69254653     0.43650
C1565       C  0.81621057  0.36677129  0.75860720    -0.05410
C1566       C  0.80983864  0.31953725  0.77713357    -0.32840
C1567       C  0.82677892  0.27815590  0.77844073     0.36410
C1568       C  0.85035806  0.28337678  0.76054982    -0.05770
C1569       C  0.85694896  0.33071682  0.74241688    -0.32740
C1570       C  0.84010227  0.37252895  0.74159459     0.36310
H1571       H  0.79158200  0.31453994  0.79054518     0.16680
O1572       O  0.81988449  0.23229322  0.79637649    -0.60240
H1573       H  0.87512960  0.33504211  0.72861486     0.16700
O1574       O  0.84695677  0.41824026  0.72340823    -0.60340
H1575       H  0.84310209  0.41261108  0.69511572     0.43690
H1576       H  0.81226694  0.21052330  0.77520120     0.43650
C1577       C  0.65862422  0.59651635  0.57794268    -0.05410
C1578       C  0.68465923  0.60298787  0.57722755    -0.32840
C1579       C  0.69934844  0.59349919  0.61037625     0.36410
C1580       C  0.68823491  0.57721044  0.64623068    -0.05770
C1581       C  0.66197438  0.57150225  0.64740253    -0.32740
C1582       C  0.64716443  0.58144962  0.61367787     0.36310
H1583       H  0.69387344  0.61593965  0.55055985     0.16680
O1584       O  0.72477023  0.60035295  0.60701976    -0.60240
H1585       H  0.65294795  0.55859881  0.67421941     0.16700
O1586       O  0.62173290  0.57402173  0.61543049    -0.60340
H1587       H  0.61519888  0.60468598  0.63023883     0.43690
H1588       H  0.73109329  0.56729252  0.59519238     0.43650
C1589       C  0.65873556  0.59939893  0.93146869    -0.05410
C1590       C  0.64691534  0.58206064  0.89653976    -0.32840
C1591       C  0.66088478  0.57285636  0.86179493     0.36410
C1592       C  0.68707310  0.58139881  0.86155645    -0.05770
C1593       C  0.69838503  0.60095113  0.89617212    -0.32740
C1594       C  0.68466841  0.60954935  0.93058375     0.36310
H1595       H  0.62692958  0.57458940  0.89644194     0.16680
O1596       O  0.64887768  0.55394995  0.82891751    -0.60240
H1597       H  0.71833248  0.60887560  0.89710830     0.16700
O1598       O  0.69673950  0.62990451  0.96300671    -0.60340
H1599       H  0.70712374  0.60088669  0.97339694     0.43690
H1600       H  0.64417938  0.58548232  0.81367141     0.43650
C1601       C  0.84012041  0.60515487  0.57814854    -0.05410
C1602       C  0.85223349  0.58586254  0.61205641    -0.32840
C1603       C  0.83864081  0.57518808  0.64686253     0.36410
C1604       C  0.81255479  0.58434291  0.64826119    -0.05770
C1605       C  0.80094657  0.60574626  0.61474124    -0.32740
C1606       C  0.81431934  0.61620786  0.58039735     0.36310
H1607       H  0.87214202  0.57782936  0.61125159     0.16680
O1608       O  0.85094577  0.55497818  0.67880915    -0.60240
H1609       H  0.78104590  0.61400920  0.61471990     0.16700
O1610       O  0.80181550  0.63777558  0.54912311    -0.60340
H1611       H  0.80465591  0.67609361  0.55152801     0.43690
H1612       H  0.85117549  0.51653332  0.67433126     0.43650
C1613       C  0.81238631  0.58802479  0.86115675    -0.05410
C1614       C  0.80116424  0.61265967  0.89388195    -0.32840
C1615       C  0.81469546  0.62351375  0.92815291     0.36410
C1616       C  0.84017170  0.60999423  0.93079562    -0.05770
C1617       C  0.85208596  0.58874833  0.89732405    -0.32740
C1618       C  0.83833233  0.57723058  0.86276101     0.36310
H1619       H  0.78142009  0.62241711  0.89351942     0.16680
O1620       O  0.80262535  0.64687434  0.95925421    -0.60040
H1621       H  0.87181154  0.57901388  0.89856952     0.16700
O1622       O  0.85023427  0.55388778  0.83151333    -0.60340
H1623       H  0.84928363  0.51571523  0.83672242     0.43690
H1624       H  0.80633409  0.68482404  0.95681092     0.43650
C1625       C  0.85154401  0.36670450  0.57865324    -0.05410
C1626       C  0.83596663  0.33128897  0.59833532    -0.32840
C1627       C  0.81609792  0.34934418  0.62150506     0.36410
C1628       C  0.81130427  0.40376432  0.62464997    -0.05770
C1629       C  0.82842831  0.43904292  0.60807965    -0.32740
C1630       C  0.84868882  0.42091613  0.58576689     0.36310
H1631       H  0.83775390  0.28955480  0.59290995     0.16680
O1632       O  0.80024461  0.31323236  0.63799168    -0.60240
H1633       H  0.82567151  0.48079737  0.61131042     0.16700
O1634       O  0.86486678  0.45630648  0.56896764    -0.60340
H1635       H  0.85476777  0.47644466  0.54974478     0.43690
H1636       H  0.80820294  0.30365000  0.66337149     0.43650
C1637       C  0.81073434  0.41102308  0.88950722    -0.05410
C1638       C  0.81819063  0.35816366  0.88635733    -0.32840
C1639       C  0.83756872  0.33836296  0.90975399     0.36410
C1640       C  0.85067485  0.37208063  0.93555685    -0.05770
C1641       C  0.84538847  0.42604258  0.93465546    -0.32740
C1642       C  0.82488329  0.44501881  0.91365426     0.36310
H1643       H  0.80794599  0.33105364  0.86762910     0.16680
O1644       O  0.84210164  0.28546545  0.90935856    -0.60240
H1645       H  0.85542651  0.45284094  0.95397476     0.16700
O1646       O  0.81814760  0.49630606  0.91869651    -0.60340
H1647       H  0.80842777  0.49732845  0.94357551     0.43690
H1648       H  0.83046061  0.27049632  0.92910197     0.43650
C1649       C  0.65108807  0.36893481  0.57699926    -0.05410
C1650       C  0.66569450  0.33252882  0.59750062    -0.32840
C1651       C  0.68589222  0.34926458  0.62063662     0.36410
C1652       C  0.69170796  0.40324253  0.62338495    -0.05770
C1653       C  0.67558318  0.43961214  0.60579418    -0.32740
C1654       C  0.65507794  0.42289019  0.58351977     0.36310
H1655       H  0.66295106  0.29086554  0.59271137     0.16680
O1656       O  0.70068988  0.31227646  0.63827409    -0.60240
H1657       H  0.67928711  0.48112816  0.60827922     0.16700
O1658       O  0.64042323  0.45947918  0.56512112    -0.60340
H1659       H  0.62598286  0.46497876  0.58300175     0.43690
H1660       H  0.71383491  0.30382234  0.61862792     0.43650
C1661       C  0.65168522  0.36804643  0.93439023    -0.05410
C1662       C  0.66761733  0.33280313  0.91509529    -0.32840
C1663       C  0.68756199  0.35113665  0.89238555     0.36410
C1664       C  0.69169042  0.40568044  0.88850477    -0.05770
C1665       C  0.67440460  0.44066335  0.90512508    -0.32740
C1666       C  0.65426361  0.42220321  0.92732434     0.36310
H1667       H  0.66606809  0.29110436  0.92057866     0.16680
O1668       O  0.70380463  0.31530858  0.87637053    -0.60240
H1669       H  0.67690291  0.48247371  0.90189905     0.16700
O1670       O  0.63847816  0.45755194  0.94500647    -0.60340
H1671       H  0.62467152  0.46271652  0.92585483     0.43690
H1672       H  0.71695276  0.31019507  0.89665968     0.43650
C1673       C  0.55882078  0.10546548  0.86980187    -0.05410
C1674       C  0.58413578  0.10451623  0.88127804    -0.32840
C1675       C  0.60263254  0.12538572  0.85647352     0.36410
C1676       C  0.59546571  0.14883843  0.82085274    -0.05770
C1677       C  0.56991423  0.15367590  0.81157425    -0.32740
C1678       C  0.55170894  0.13171533  0.83552185     0.36310
H1679       H  0.58952607  0.08682732  0.90890559     0.16680
O1680       O  0.62742794  0.12157207  0.86669397    -0.60240
H1681       H  0.56416399  0.17218498  0.78434935     0.16700
O1682       O  0.52697170  0.13495254  0.82472617    -0.60340
H1683       H  0.52060304  0.16703333  0.83792745     0.43690
H1684       H  0.63362105  0.08975293  0.85296422     0.43650
C1685       C  0.56051895  0.10725470  0.63887663    -0.05410
C1686       C  0.57779216  0.07067844  0.65319585    -0.32840
C1687       C  0.59894039  0.08692562  0.67446977     0.36410
C1688       C  0.60270203  0.14059829  0.68264398    -0.05770
C1689       C  0.58654485  0.17743755  0.66571865    -0.32740
C1690       C  0.56565325  0.16122714  0.64380874     0.36310
H1691       H  0.57455202  0.02930690  0.64883183     0.16680
O1692       O  0.61522840  0.05019002  0.68907023    -0.60240
H1693       H  0.58877331  0.21877343  0.67246657     0.16700
O1694       O  0.54913766  0.19833346  0.63060350    -0.60340
H1695       H  0.55788678  0.21630724  0.60873626     0.43690
H1696       H  0.60550931  0.02941912  0.70841162     0.43650
C1697       C  0.56536553  0.15090971  0.50787079    -0.05410
C1698       C  0.58993595  0.14511127  0.99372803    -0.32840
C1699       C  0.60618031  0.18835601  0.99226598     0.36410
C1700       C  0.59801774  0.23771095  0.00578763    -0.05770
C1701       C  0.57378091  0.24323406  0.52069805    -0.32740
C1702       C  0.55735971  0.20069322  0.52126386     0.36310
H1703       H  0.59636980  0.10736310  0.98309410     0.16680
O1704       O  0.62993508  0.18208025  0.97765715    -0.60240
H1705       H  0.56743426  0.28102425  0.53144561     0.16700
O1706       O  0.53365088  0.20808682  0.53583269    -0.60340
H1707       H  0.52381913  0.22238958  0.51354542     0.43690
H1708       H  0.64062508  0.17561936  0.00104223     0.43650
C1709       C  0.90520178  0.15045615  0.82644424    -0.05410
C1710       C  0.90795786  0.09582151  0.82854746    -0.32840
C1711       C  0.92753531  0.07376575  0.84998769     0.36410
C1712       C  0.94379230  0.10615332  0.87196284    -0.05770
C1713       C  0.93925289  0.16056413  0.87307996    -0.32740
C1714       C  0.92031638  0.18280907  0.85028151     0.36310
H1715       H  0.89643766  0.07042765  0.81024095     0.16680
O1716       O  0.93114409  0.02078366  0.84784151    -0.60240
H1717       H  0.95131489  0.18659803  0.88989725     0.16700
O1718       O  0.91867654  0.23636501  0.84810552    -0.60340
H1719       H  0.90853910  0.24698821  0.87126447     0.43690
H1720       H  0.94044625  0.01478082  0.82294745     0.43650
C1721       C  0.90425193  0.15976399  0.68374925    -0.05410
C1722       C  0.90405043  0.10591031  0.67552840    -0.32840
C1723       C  0.92276916  0.08362031  0.65243351     0.36410
C1724       C  0.94192745  0.11497639  0.63687308    -0.05770
C1725       C  0.94035227  0.16978030  0.64133535    -0.32740
C1726       C  0.92161655  0.19227068  0.66461161     0.36310
H1727       H  0.89050848  0.08052549  0.68971325     0.16680
O1728       O  0.92199414  0.03116842  0.64495076    -0.60240
H1729       H  0.95447937  0.19512103  0.62863470     0.16700
O1730       O  0.92221336  0.24514347  0.67206409    -0.60340
H1731       H  0.91154751  0.26088903  0.65134129     0.43690
H1732       H  0.91242208  0.02872563  0.61998032     0.43650
C1733       C  0.90548312  0.23907152  0.00332044    -0.05410
C1734       C  0.89859228  0.19290546  0.52304901    -0.32840
C1735       C  0.91422177  0.14878024  0.52245032     0.36410
C1736       C  0.93740886  0.15091513  0.00272857    -0.05770
C1737       C  0.94419119  0.19705955  0.98297014    -0.32740
C1738       C  0.92839075  0.24064794  0.98287623     0.36310
H1739       H  0.88101131  0.19107105  0.53891029     0.16680
O1740       O  0.90728886  0.10493042  0.54296890    -0.60240
H1741       H  0.96196507  0.19953007  0.96770156     0.16700
O1742       O  0.93580921  0.28507250  0.96348887    -0.60340
H1743       H  0.94495662  0.30629433  0.98344406     0.43690
H1744       H  0.89669073  0.08433012  0.52448033     0.43650
C1745       C  0.91226204  0.90144582  0.82877811    -0.05410
C1746       C  0.89996129  0.91984759  0.86292652    -0.32840
C1747       C  0.91348487  0.93147932  0.89778998     0.36410
C1748       C  0.93969004  0.92382578  0.89913812    -0.05770
C1749       C  0.95144652  0.90229412  0.86564958    -0.32740
C1750       C  0.93818264  0.89162717  0.83097299     0.36310
H1751       H  0.87996486  0.92688823  0.86217971     0.16680
O1752       O  0.90099246  0.95135730  0.92979388    -0.60240
H1753       H  0.97141789  0.89477991  0.86570964     0.16700
O1754       O  0.95070839  0.86992012  0.79961397    -0.60340
H1755       H  0.96178858  0.89812152  0.78957905     0.43690
H1756       H  0.90044336  0.98977210  0.92555046     0.43650
C1757       C  0.93841257  0.92504676  0.61096179    -0.05410
C1758       C  0.95069474  0.90553774  0.64457067    -0.32840
C1759       C  0.93769619  0.89289331  0.67874647     0.36410
C1760       C  0.91163423  0.90027707  0.68089975    -0.05770
C1761       C  0.89880812  0.91590159  0.64652433    -0.32740
C1762       C  0.91197399  0.92755937  0.61143586     0.36310
H1763       H  0.97086072  0.90093718  0.64497014     0.16680
O1764       O  0.95087147  0.87327391  0.71005909    -0.60240
H1765       H  0.87865750  0.92072210  0.64720529     0.16700
O1766       O  0.89913651  0.94579241  0.57923988    -0.60340
H1767       H  0.88727814  0.91746838  0.57167263     0.43690
H1768       H  0.94921186  0.83464621  0.70779647     0.43650
C1769       C  0.94487963  0.78266611  0.50619919    -0.05410
C1770       C  0.94579729  0.74075273  0.47928497    -0.32840
C1771       C  0.92739528  0.70146811  0.47951406     0.36410
C1772       C  0.90719053  0.70435452  0.50628505    -0.05770
C1773       C  0.90626171  0.74666389  0.53295095    -0.32740
C1774       C  0.92487420  0.78532324  0.53313238     0.36310
H1775       H  0.96115568  0.73771452  0.95864817     0.16680
O1776       O  0.92957147  0.66009686  0.45377897    -0.60240
H1777       H  0.89069852  0.75057983  0.55319717     0.16700
O1778       O  0.92285578  0.82646641  0.55900216    -0.60340
H1779       H  0.91650682  0.85589342  0.54290718     0.43690
H1780       H  0.93845287  0.63250480  0.46873899     0.43650
C1781       C  0.59223060  0.90697179  0.83266112    -0.05410
C1782       C  0.57369128  0.87213150  0.84549290    -0.32840
C1783       C  0.56013884  0.88221736  0.87998704     0.36410
C1784       C  0.56544205  0.92714121  0.90304513    -0.05770
C1785       C  0.58511638  0.96036330  0.89143332    -0.32740
C1786       C  0.59817366  0.95105069  0.85606678     0.36310
H1787       H  0.56920853  0.83764703  0.82802966     0.16680
O1788       O  0.54164159  0.84785429  0.89095123    -0.60240
H1789       H  0.58945632  0.99494407  0.90871908     0.16700
O1790       O  0.61640133  0.98553209  0.84433521    -0.60340
H1791       H  0.60784464  0.00998684  0.82615032     0.43690
H1792       H  0.52690692  0.85696278  0.87454313     0.43650
C1793       C  0.56163923  0.93168540  0.61639165    -0.05410
C1794       C  0.58793145  0.93619603  0.61581074    -0.32840
C1795       C  0.60229092  0.92608059  0.64995132     0.36410
C1796       C  0.59036130  0.91138941  0.68543887    -0.05770
C1797       C  0.56426899  0.90598707  0.68554741    -0.32740
C1798       C  0.55000644  0.91604883  0.65202409     0.36310
H1799       H  0.59733322  0.94876661  0.58922222     0.16680
O1800       O  0.62775780  0.93330906  0.64889355    -0.60240
H1801       H  0.55466967  0.89333007  0.71196283     0.16700
O1802       O  0.52449380  0.91029772  0.65476561    -0.60340
H1803       H  0.51838278  0.94364964  0.66640659     0.43690
H1804       H  0.63432335  0.90387476  0.63275804     0.43650
C1805       C  0.55793511  0.78386908  0.50963351    -0.05410
C1806       C  0.57773836  0.78726239  0.48261061    -0.32840
C1807       C  0.59648636  0.74897029  0.48142342     0.36410
C1808       C  0.59514409  0.70494129  0.50646244    -0.05770
C1809       C  0.57534940  0.70195143  0.53369722    -0.32740
C1810       C  0.55706717  0.74120521  0.53574288     0.36310
H1811       H  0.57888670  0.82023830  0.46268822     0.16680
O1812       O  0.61627194  0.75570679  0.45620042    -0.60240
H1813       H  0.57385362  0.66866055  0.55323324     0.16700
O1814       O  0.53766736  0.73598209  0.56190424    -0.60340
H1815       H  0.04402698  0.75086285  0.58704620     0.43690
H1816       H  0.62963674  0.77232514  0.47235396     0.43650
loop_ 
_geom_bond_atom_site_label_1 
_geom_bond_atom_site_label_2 
_geom_bond_distance 
_geom_bond_site_symmetry_2 
_ccdc_geom_bond_type 
O1           C28   1.274       .  A
O1          Mn27   2.107   1_545  S
C2           O32   1.274       .  A
C2          O489   1.272   1_554  A
C2          C443   1.479       .  S
O3          Mn21   2.125       .  S
O3         Mn464   2.176   1_545  S
O3         Mn933   2.179   1_445  S
O3         Mn935   2.117   1_545  S
O4          C468   1.273       .  A
O4         Mn946   2.097       .  S
O5           C28   1.264       .  A
O5         Mn929   2.053       .  S
O6           C33   1.255       .  A
O6          Mn25   2.100   1_545  S
O7          Mn27   1.954       .  S
O7         Mn946   1.962       .  S
O7           C23   1.217       .  S
C8           O11   1.257       .  A
C8          C395   1.497       .  S
C8           O34   1.212       .  S
O9          Mn43   2.128       .  S
O9         Mn937   2.100   1_545  S
O9         Mn918   2.180   1_545  S
O9         Mn479   2.179   1_545  S
Mn10         O39   2.148       .  S
Mn10         O15   2.108   1_565  S
Mn10        O496   2.126   1_554  S
Mn10         O16   2.166       .  S
Mn10        O457   2.176   1_564  S
Mn10        O917   2.180   1_565  S
O11        Mn479   2.157       .  S
O12          C14   1.272       .  A
O12         Mn19   2.091       .  S
C13          O39   1.259       .  A
C13         C431   1.496       .  S
C13          O26   1.213       .  S
C14         O458   1.273   1_554  A
C14         C407   1.479       .  S
O15          C40   1.252       .  A
O16        Mn927   2.110       .  S
O16        Mn492   2.117   1_554  S
O16       Mn1387   2.169   1_455  S
O17        Mn475   1.928   1_554  S
O17        Mn951   1.926       .  S
O17          C40   1.215       .  S
C18          O44   1.278       .  A
C18          O20   1.262       .  A
C18         C362   1.477       .  S
Mn19        O940   2.100       .  S
Mn19        O924   2.110       .  S
Mn19         O34   1.954       .  S
Mn19        O934   1.959       .  S
O20         Mn43   2.049       .  S
Mn21         O37   2.058       .  S
Mn21        O913   2.053   1_455  S
Mn21        O471   1.928       .  S
Mn21        O939   1.948   1_455  S
O22          C24   1.272       .  A
O22        Mn935   2.103   1_545  S
C23          O41   1.258       .  A
C23         C386   1.498       .  S
C24          O37   1.261       .  A
C24         C311   1.456       .  S
Mn25         O41   2.142       .  S
Mn25        O465   2.157       .  S
Mn25        O911   2.179   1_565  S
Mn25        O463   2.179   1_565  S
Mn25       O1378   2.169       .  S
O26         Mn29   1.954   1_455  S
O26        Mn927   1.959       .  S
Mn27        O930   2.102   1_565  S
Mn27        O911   2.117   1_565  S
Mn27        O953   1.960       .  S
C28         C350   1.480       .  S
Mn29         O36   2.109   1_665  S
Mn29        O952   2.120   1_565  S
Mn29        O917   2.100   1_665  S
Mn29        O942   1.951       .  S
C30          O36   1.274       .  A
C30          O46   1.264       .  A
C30         C323   1.480       .  S
O31        Mn929   1.948       .  S
O31        Mn497   1.951       .  S
O31          C33   1.222       .  S
O32        Mn927   2.100       .  S
C33         C374   1.478       .  S
O34        Mn937   1.951       .  S
O35         C456   1.272       .  A
O35         Mn38   2.091       .  S
Mn38        O912   2.097   1_455  S
Mn38        O470   2.117       .  S
Mn38         O45   1.966       .  S
Mn38        O915   1.962   1_455  S
C40         C335   1.477       .  S
O42          C47   1.257       .  A
O42        Mn464   2.126       .  S
Mn43        O954   2.067       .  S
Mn43        O925   1.926       .  S
Mn43        O485   1.951       .  S
O44        Mn937   2.120   1_545  S
O45        Mn935   1.960       .  S
O45          C47   1.218       .  S
O46        Mn951   2.067       .  S
C47         C422   1.485       .  S
C48         C338   1.471       .  S
C48          C49   1.406       .  A
C48         C507   1.406       .  A
C49          C50   1.403       .  A
C49          H54   1.084       .  S
C50         C299   1.474       .  S
C50          C51   1.395       .  A
C51         C506   1.395       .  A
C51          H55   1.085       .  S
C52         C287   1.474       .  S
C52          C53   1.400       .  A
C52         C505   1.395       .  A
C53         C502   1.406       .  A
C53          H56   1.084       .  S
C57         C371   1.482       .  S
C57          C62   1.412       .  A
C57         C512   1.411       .  A
C58          C59   1.403       .  A
C58         C511   1.411       .  A
C58          H63   1.084       .  S
C59         C263   1.477       .  S
C59         C514   1.392       .  A
C60          C61   1.395       .  A
C60         C513   1.392       .  A
C60          H64   1.084       .  S
C61         C278   1.484       .  S
C61          C62   1.405       .  A
C62          H65   1.083       .  S
C66         C410   1.490       .  S
C66          C67   1.408   1_554  A
C66          C71   1.412       .  A
C67          C68   1.400       .  A
C67         H526   1.083       .  S
C68         C708   1.490       .  S
C68          C69   1.408   1_556  A
C69          C70   1.409       .  A
C69          H73   1.083       .  S
C70         C239   1.497       .  S
C70          C71   1.405       .  A
C71          H74   1.083       .  S
H72         C521   1.083       .  S
C75         C446   1.493       .  S
C75          C80   1.410       .  A
C75         C530   1.412   1_554  A
C76          C77   1.404       .  A
C76         C529   1.412       .  A
C76          H81   1.083       .  S
C77         C227   1.496       .  S
C77         C532   1.408       .  A
C78          C79   1.409       .  A
C78         C531   1.408   1_554  A
C78          H82   1.084       .  S
C79         C215   1.495       .  S
C79          C80   1.403       .  A
C80          H83   1.083       .  S
O84         C111   1.265       .  A
O84        Mn110   2.065       .  S
C85         O118   1.264       .  A
C85         O115   1.274       .  A
C85         C275   1.486       .  S
O86         Mn93   2.170       .  S
O86        Mn104   2.107       .  S
O86        Mn108   2.177       .  S
O86        Mn110   2.129       .  S
O87          C97   1.263       .  A
O87        Mn121   2.058       .  S
O88         C111   1.272       .  A
O88        Mn104   2.097       .  S
O89         C116   1.258       .  A
O89        Mn108   2.147       .  S
O90        Mn121   1.943       .  S
O90        Mn110   1.945       .  S
O90         C106   1.221       .  S
C91          O94   1.258       .  A
C91         C230   1.499       .  S
C91         O117   1.218       .  S
O92        Mn112   2.112       .  S
O92         Mn93   2.157       .  S
O92        Mn126   2.112       .  S
O92        Mn108   2.162       .  S
Mn93        O122   2.132       .  S
Mn93         O98   2.144       .  S
Mn93        O125   2.079       .  S
Mn93         O99   2.180       .  S
O94        Mn108   2.141       .  S
O95          C97   1.273       .  A
O95        Mn102   2.105       .  S
C96         O122   1.256       .  A
C96         C251   1.493       .  S
C96         O109   1.216       .  S
C97         C302   1.478       .  S
O98         C123   1.256       .  A
O99        Mn102   2.113       .  S
O99        Mn121   2.129       .  S
O99        Mn108   2.181       .  S
O100       Mn104   1.952       .  S
O100       Mn126   1.966       .  S
O100        C123   1.215       .  S
C101        O127   1.272       .  A
C101        O103   1.272       .  A
C101        C170   1.474       .  S
Mn102       O115   2.107       .  S
Mn102       O117   1.955       .  S
Mn102       O109   1.950       .  S
O103       Mn126   2.093       .  S
Mn104       O120   2.112       .  S
Mn104       O114   1.949       .  S
O105        C107   1.264       .  A
O105       Mn110   2.062       .  S
C106        O124   1.253       .  A
C106        C194   1.477       .  S
C107        O120   1.275       .  A
C107        C266   1.482       .  S
Mn108       O124   2.096       .  S
O109       Mn112   1.958       .  S
Mn110       O128   1.948       .  S
C111        C290   1.477       .  S
Mn112       O119   2.086       .  S
Mn112       O127   2.088       .  S
Mn112       O117   1.967       .  S
C113        O119   1.271       .  A
C113        O129   1.273       .  A
C113        C179   1.476       .  S
O114       Mn126   1.957       .  S
O114        C116   1.214       .  S
C116        C218   1.497       .  S
O118       Mn121   2.064       .  S
Mn121       O128   1.942       .  S
C123        C242   1.498       .  S
O125        C130   1.250       .  A
Mn126       O129   2.097       .  S
O128        C130   1.221       .  S
C130        C203   1.468       .  S
C131        C191   1.475       .  S
C131        C132   1.410       .  A
C131        C136   1.408       .  A
C132        C133   1.405       .  A
C132        H137   1.084       .  S
C133        C326   1.477       .  S
C133        C134   1.393       .  A
C134        C135   1.393       .  A
C134        H138   1.085       .  S
C135        C314   1.470       .  S
C135        C136   1.399       .  A
C136        H139   1.084       .  S
C140        C182   1.488       .  S
C140        C141   1.408       .  A
C140        C145   1.411       .  A
C141        C142   1.401       .  A
C141        H146   1.083       .  S
C142        C398   1.495       .  S
C142        C143   1.411       .  A
C143        C144   1.410       .  A
C143        H147   1.083       .  S
C144        C383   1.499       .  S
C144        C145   1.404       .  A
C145        H148   1.083       .  S
C149        C167   1.487       .  S
C149        C150   1.408       .  A
C149        C154   1.406       .  A
C150        C151   1.406       .  A
C150        H155   1.082       .  S
C151        C434   1.495       .  S
C151        C152   1.413       .  A
C152        C153   1.404       .  A
C152        H156   1.084       .  S
C153        C419   1.482       .  S
C153        C154   1.399       .  A
C154        H157   1.083       .  S
C158        C206   1.468       .  S
C158        C159   1.406       .  A
C158        C163   1.407       .  A
C159        C160   1.396       .  A
C159        H164   1.084       .  S
C160        C359   1.467       .  S
C160        C161   1.392       .  A
C161        C162   1.393       .  A
C161        H165   1.085       .  S
C162        C347   1.473       .  S
C162        C163   1.401       .  A
C163        H166   1.084       .  S
C167        C168   1.408       .  A
C167        C172   1.411       .  A
C168        C169   1.401       .  A
C168        H173   1.083       .  S
C169        C170   1.408       .  A
C169        O174   1.372       .  S
C170        C171   1.402       .  A
C171        C172   1.399       .  A
C171        H175   1.084       .  S
C172        O176   1.373       .  S
O174        H178   0.992       .  S
O176        H177   0.992       .  S
C179        C180   1.402       .  A
C179        C184   1.408       .  A
C180        C181   1.400       .  A
C180        H185   1.084       .  S
C181        C182   1.413       .  A
C181        O186   1.371       .  S
C182        C183   1.406       .  A
C183        C184   1.398       .  A
C183        H187   1.083       .  S
C184        O188   1.371       .  S
O186        H190   0.992       .  S
O188        H189   0.992       .  S
C191        C192   1.404       .  A
C191        C196   1.405       .  A
C192        C193   1.403       .  A
C192        H197   1.084       .  S
C193        C194   1.410       .  A
C193        O198   1.372       .  S
C194        C195   1.405       .  A
C195        C196   1.396       .  A
C195        H199   1.084       .  S
C196        O200   1.372       .  S
O198        H202   0.991       .  S
O200        H201   0.992       .  S
C203        C204   1.404       .  A
C203        C208   1.408       .  A
C204        C205   1.393       .  A
C204        H209   1.084       .  S
C205        C206   1.404       .  A
C205        O210   1.372       .  S
C206        C207   1.403       .  A
C207        C208   1.397       .  A
C207        H211   1.084       .  S
C208        O212   1.372       .  S
O210        H214   0.992       .  S
O212        H213   0.991       .  S
C215        C216   1.399       .  A
C215        C220   1.414       .  A
C216        C217   1.393       .  A
C216        H221   1.084       .  S
C217        C218   1.419       .  A
C217        O222   1.373       .  S
C218        C219   1.409       .  A
C219        C220   1.415       .  A
C219        H223   1.083       .  S
C220        O224   1.371       .  S
O222        H226   0.992       .  S
O224        H225   0.992       .  S
C227        C228   1.410       .  A
C227        C232   1.408       .  A
C228        C229   1.415       .  A
C228        H233   1.083       .  S
C229        C230   1.414       .  A
C229        O234   1.371       .  S
C230        C231   1.408       .  A
C231        C232   1.396       .  A
C231        H235   1.084       .  S
C232        O236   1.373       .  S
O234        H238   0.992       .  S
O236        H237   0.992       .  S
C239        C240   1.411       .  A
C239        C244   1.408       .  A
C240        C241   1.415       .  A
C240        H245   1.083       .  S
C241        C242   1.413       .  A
C241        O246   1.371       .  S
C242        C243   1.408       .  A
C243        C244   1.396       .  A
C243        H247   1.083       .  S
C244        O248   1.373       .  S
O246        H250   0.992       .  S
O248        H249   0.992       .  S
C251        C252   1.408       .  A
C251        C256   1.414       .  A
C252        C253   1.394       .  A
C252        H257   1.084       .  S
C253        C254   1.407       .  A
C253        O258   1.372       .  S
C254        C522   1.490       .  S
C254        C255   1.409       .  A
C255        C256   1.412       .  A
C255        H259   1.083       .  S
C256        O260   1.371       .  S
O258        H262   0.992       .  S
O260        H261   0.992       .  S
C263        C264   1.399       .  A
C263        C268   1.411       .  A
C264        C265   1.399       .  A
C264        H269   1.084       .  S
C265        C266   1.416       .  A
C265        O270   1.371       .  S
C266        C267   1.402       .  A
C267        C268   1.399       .  A
C267        H271   1.081       .  S
C268        O272   1.374       .  S
O270        H274   0.992       .  S
O272        H273   0.992       .  S
C275        C276   1.410       .  A
C275        C280   1.407       .  A
C276        C277   1.400       .  A
C276        H281   1.083       .  S
C277        C278   1.408       .  A
C277        O282   1.372       .  S
C278        C279   1.406       .  A
C279        C280   1.395       .  A
C279        H283   1.084       .  S
C280        O284   1.368       .  S
O282        H286   0.992       .  S
O284        H285   0.992       .  S
C287        C288   1.402       .  A
C287        C292   1.408       .  A
C288        C289   1.397       .  A
C288        H293   1.084       .  S
C289        C290   1.413       .  A
C289        O294   1.372       .  S
C290        C291   1.403       .  A
C291        C292   1.394       .  A
C291        H295   1.080       .  S
C292        O296   1.372       .  S
O294        H298   0.992       .  S
O296        H297   0.991       .  S
C299        C300   1.400       .  A
C299        C304   1.410       .  A
C300        C301   1.396       .  A
C300        H305   1.084       .  S
C301        C302   1.415       .  A
C301        O306   1.372       .  S
C302        C303   1.402       .  A
C303        C304   1.396       .  A
C303        H307   1.081       .  S
C304        O308   1.372       .  S
O306        H310   0.992       .  S
O308        H309   0.992       .  S
C311        C312   1.406       .  A
C311        C316   1.398       .  A
C312        C313   1.404       .  A
C312        H317   1.082       .  S
C313        C314   1.405       .  A
C313        O318   1.371       .  S
C314        C315   1.405       .  A
C315        C316   1.387       .  A
C315        H319   1.085       .  S
C316        O320   1.373       .  S
O318        H322   0.991       .  S
O320        H321   0.992       .  S
C323        C324   1.402       .  A
C323        C328   1.412       .  A
C324        C325   1.400       .  A
C324        H329   1.078       .  S
C325        C326   1.409       .  A
C325        O330   1.374       .  S
C326        C327   1.402       .  A
C327        C328   1.400       .  A
C327        H331   1.084       .  S
C328        O332   1.372       .  S
O330        H334   0.992       .  S
O332        H333   0.991       .  S
C335        C340   1.414       .  A
C335        C790   1.405   1_554  A
C336        C337   1.402       .  A
C336        C789   1.405       .  A
C336        H341   1.083       .  S
C337        C338   1.408       .  A
C337        O342   1.371       .  S
C338        C793   1.397       .  A
C339        C340   1.393       .  A
C339        C792   1.397       .  A
C339        H343   1.084       .  S
C340        O344   1.372       .  S
O342        H346   0.992       .  S
O344        H345   0.992       .  S
C347        C348   1.404       .  A
C347        C352   1.405       .  A
C348        C349   1.394       .  A
C348        H353   1.084       .  S
C349        C350   1.407       .  A
C349        O354   1.367       .  S
C350        C351   1.410       .  A
C351        C352   1.396       .  A
C351        H355   1.083       .  S
C352        O356   1.372       .  S
O354        H358   0.992       .  S
O356        H357   0.992       .  S
C359        C360   1.400       .  A
C359        C364   1.404       .  A
C360        C361   1.391       .  A
C360        H365   1.084       .  S
C361        C362   1.402       .  A
C361        O366   1.361       .  S
C362        C363   1.408       .  A
C363        C364   1.398       .  A
C363        H367   1.083       .  S
C364        O368   1.371       .  S
O366        H370   0.991       .  S
O368        H369   0.992       .  S
C371        C376   1.407       .  A
C371        C826   1.406       .  A
C372        C373   1.403       .  A
C372        C825   1.406       .  A
C372        H377   1.084       .  S
C373        C828   1.409       .  A
C373        O378   1.371       .  S
C374        C375   1.405       .  A
C374        C827   1.409       .  A
C375        C376   1.397       .  A
C375        H379   1.083       .  S
C376        O380   1.372       .  S
O378        H382   0.992       .  S
O380        H381   0.992       .  S
C383        C384   1.411       .  A
C383        C388   1.409       .  A
C384        C385   1.415       .  A
C384        H389   1.083       .  S
C385        C386   1.413       .  A
C385        O390   1.371       .  S
C386        C387   1.409       .  A
C387        C388   1.398       .  A
C387        H391   1.084       .  S
C388        O392   1.372       .  S
O390        H394   0.992       .  S
O392        H393   0.992       .  S
C395        C396   1.409       .  A
C395        C400   1.413       .  A
C396        C397   1.392       .  A
C396        H401   1.083       .  S
C397        C398   1.406       .  A
C397        O402   1.371       .  S
C398        C399   1.412       .  A
C399        C400   1.416       .  A
C399        H403   1.083       .  S
C400        O404   1.373       .  S
O402        H406   0.992       .  S
O404        H405   0.992       .  S
C407        C408   1.403   1_554  A
C407        C412   1.408       .  A
C408        C409   1.401       .  A
C408        H867   1.084       .  S
C409        C410   1.413   1_556  A
C409        O414   1.371       .  S
C410        C411   1.405       .  A
C411        C412   1.398       .  A
C411        H415   1.083       .  S
C412        O416   1.369       .  S
H413        C862   1.084       .  S
O414        H418   0.992       .  S
O416        H417   0.991       .  S
C419        C420   1.400       .  A
C419        C424   1.408       .  A
C420        C421   1.400       .  A
C420        H425   1.084       .  S
C421        C422   1.412       .  A
C421        O426   1.372       .  S
C422        C423   1.406       .  A
C423        C424   1.408       .  A
C423        H427   1.081       .  S
C424        O428   1.371       .  S
O426        H430   0.992       .  S
O428        H429   0.992   1_565  S
C431        C432   1.408       .  A
C431        C436   1.419       .  A
C432        C433   1.414       .  A
C432        H437   1.083       .  S
C433        C434   1.415       .  A
C433        O438   1.372       .  S
C434        C435   1.399       .  A
C435        C436   1.394       .  A
C435        H439   1.084       .  S
C436        O440   1.373       .  S
O438        H442   0.992       .  S
O440        H441   0.992       .  S
C443        C444   1.403   1_554  A
C443        C448   1.408       .  A
C444        C445   1.401       .  A
C444        H449   1.084       .  S
C445        C446   1.414   1_556  A
C445        O450   1.371       .  S
C446        C447   1.407       .  A
C447        C448   1.402       .  A
C447        H451   1.083       .  S
C448        O452   1.372       .  S
O450        H454   0.992       .  S
O452       H1361   0.992       .  S
H453       O1360   0.992       .  S
O455        C482   1.274       .  A
O455       Mn481   2.107   1_545  S
C456        O486   1.274       .  A
C456        C897   1.479       .  S
O457       Mn475   2.125       .  S
O457      Mn1387   2.179   1_446  S
O457      Mn1389   2.117   1_545  S
O458      Mn1400   2.097       .  S
O459        C482   1.264       .  A
O459      Mn1383   2.053       .  S
O460        C487   1.255       .  A
O460       Mn479   2.100   1_545  S
O461      Mn1400   1.962       .  S
O461       Mn481   1.954       .  S
O461        C477   1.217       .  S
C462        O465   1.257       .  A
C462        C849   1.497       .  S
C462        O488   1.212       .  S
O463      Mn1391   2.100   1_545  S
O463      Mn1372   2.180   1_545  S
O463       Mn497   2.128       .  S
Mn464       O493   2.148       .  S
Mn464       O469   2.108   1_565  S
Mn464      O1371   2.180   1_565  S
Mn464       O470   2.166       .  S
O466        C468   1.272       .  A
O466       Mn473   2.091       .  S
C467        O493   1.259       .  A
C467        C885   1.497       .  S
C467        O480   1.213       .  S
C468        C861   1.479       .  S
O469        C494   1.252       .  A
O470      Mn1381   2.110       .  S
O470       Mn933   2.169   1_455  S
O471      Mn1405   1.926       .  S
O471        C494   1.215       .  S
C472        O498   1.278       .  A
C472        O474   1.262       .  A
C472        C816   1.477       .  S
Mn473      O1394   2.100       .  S
Mn473      O1378   2.110       .  S
Mn473       O488   1.954       .  S
Mn473      O1388   1.959       .  S
O474       Mn497   2.049       .  S
Mn475      O1367   2.053   1_455  S
Mn475       O491   2.058       .  S
Mn475      O1393   1.948   1_456  S
O476        C478   1.272       .  A
O476      Mn1389   2.102   1_545  S
C477        O495   1.258       .  A
C477        C840   1.498       .  S
C478        O491   1.261       .  A
C478        C765   1.456       .  S
Mn479       O495   2.142   1_554  S
Mn479      O1365   2.179   1_564  S
Mn479       O924   2.169       .  S
O480      Mn1381   1.959       .  S
O480       Mn483   1.954   1_455  S
Mn481      O1384   2.102   1_565  S
Mn481      O1365   2.117   1_565  S
Mn481      O1407   1.960       .  S
C482        C804   1.480       .  S
Mn483       O490   2.109   1_665  S
Mn483      O1406   2.120   1_565  S
Mn483      O1371   2.100   1_665  S
Mn483      O1396   1.951       .  S
C484        O490   1.274       .  A
C484        O500   1.264       .  A
C484        C777   1.480       .  S
O485      Mn1383   1.948   1_554  S
O485        C487   1.222       .  S
O486      Mn1381   2.100       .  S
C487        C828   1.478       .  S
O488      Mn1391   1.951       .  S
O489       Mn492   2.091       .  S
Mn492      O1366   2.097   1_455  S
Mn492      O1369   1.962   1_455  S
Mn492       O499   1.966       .  S
C494        C789   1.477       .  S
O496        C501   1.257       .  A
Mn497      O1408   2.067       .  S
Mn497      O1379   1.926       .  S
O498      Mn1391   2.120   1_545  S
O499      Mn1389   1.960       .  S
O499        C501   1.218       .  S
O500      Mn1405   2.067       .  S
C501        C876   1.485       .  S
C502        C792   1.471       .  S
C502        C503   1.407   1_554  A
C503        C504   1.403       .  A
C503        H508   1.084       .  S
C504        C753   1.474       .  S
C504        C505   1.395   1_556  A
C505        H509   1.085       .  S
C506        C741   1.474       .  S
C506        C507   1.400       .  A
C507        H510   1.084       .  S
C511        C825   1.482       .  S
C511        C516   1.412   1_554  A
C512        C513   1.403       .  A
C512        H517   1.084       .  S
C513        C717   1.477       .  S
C514        C515   1.395   1_554  A
C514        H518   1.084       .  S
C515        C732   1.484       .  S
C515        C516   1.405       .  A
C516        H519   1.083       .  S
C520        C864   1.490       .  S
C520        C521   1.408       .  A
C520        C525   1.412       .  A
C521        C522   1.400       .  A
C522        C523   1.408       .  A
C523        C524   1.409       .  A
C523        H527   1.084       .  S
C524        C693   1.497       .  S
C524        C525   1.405       .  A
C525        H528   1.083       .  S
C529        C900   1.493       .  S
C529        C534   1.410       .  A
C530        C531   1.404       .  A
C530        H535   1.083       .  S
C531        C681   1.496       .  S
C532        C533   1.409       .  A
C532        H536   1.084       .  S
C533        C669   1.495       .  S
C533        C534   1.403       .  A
C534        H537   1.083       .  S
O538        C565   1.265       .  A
O538       Mn564   2.065       .  S
C539        O572   1.264       .  A
C539        O569   1.274       .  A
C539        C729   1.486       .  S
O540       Mn547   2.170       .  S
O540       Mn558   2.107       .  S
O540       Mn562   2.177       .  S
O540       Mn564   2.129       .  S
O541        C551   1.263       .  A
O541       Mn575   2.058       .  S
O542        C565   1.272       .  A
O542       Mn558   2.097       .  S
O543        C570   1.258       .  A
O543       Mn562   2.147       .  S
O544       Mn575   1.943       .  S
O544       Mn564   1.944       .  S
O544        C560   1.221       .  S
C545        O548   1.258       .  A
C545        C684   1.499       .  S
C545        O571   1.218       .  S
O546       Mn566   2.112       .  S
O546       Mn547   2.157       .  S
O546       Mn580   2.112       .  S
O546       Mn562   2.162       .  S
Mn547       O576   2.132       .  S
Mn547       O552   2.144       .  S
Mn547       O579   2.079       .  S
Mn547       O553   2.180       .  S
O548       Mn562   2.141       .  S
O549        C551   1.273       .  A
O549       Mn556   2.105       .  S
C550        O576   1.256       .  A
C550        C705   1.493       .  S
C550        O563   1.216       .  S
C551        C756   1.478       .  S
O552        C577   1.256       .  A
O553       Mn556   2.113       .  S
O553       Mn575   2.129       .  S
O553       Mn562   2.181       .  S
O554       Mn558   1.951       .  S
O554       Mn580   1.966       .  S
O554        C577   1.215       .  S
C555        O581   1.272       .  A
C555        O557   1.272       .  A
C555        C624   1.474       .  S
Mn556       O569   2.107       .  S
Mn556       O571   1.955       .  S
Mn556       O563   1.950       .  S
O557       Mn580   2.093       .  S
Mn558       O574   2.112       .  S
Mn558       O568   1.949       .  S
O559        C561   1.264       .  A
O559       Mn564   2.062       .  S
C560        O578   1.253       .  A
C560        C648   1.477       .  S
C561        O574   1.275       .  A
C561        C720   1.482       .  S
Mn562       O578   2.096       .  S
O563       Mn566   1.958       .  S
Mn564       O582   1.948       .  S
C565        C744   1.477       .  S
Mn566       O573   2.086       .  S
Mn566       O581   2.088       .  S
Mn566       O571   1.967       .  S
C567        O573   1.271       .  A
C567        O583   1.273       .  A
C567        C633   1.476       .  S
O568       Mn580   1.958       .  S
O568        C570   1.214       .  S
C570        C672   1.497       .  S
O572       Mn575   2.064       .  S
Mn575       O582   1.942       .  S
C577        C696   1.498       .  S
O579        C584   1.250       .  A
Mn580       O583   2.097       .  S
O582        C584   1.221       .  S
C584        C657   1.468       .  S
C585        C645   1.475       .  S
C585        C586   1.410       .  A
C585        C590   1.408       .  A
C586        C587   1.405       .  A
C586        H591   1.084       .  S
C587        C780   1.477       .  S
C587        C588   1.393       .  A
C588        C589   1.393       .  A
C588        H592   1.085       .  S
C589        C768   1.470       .  S
C589        C590   1.399       .  A
C590        H593   1.084       .  S
C594        C636   1.488       .  S
C594        C595   1.408       .  A
C594        C599   1.411       .  A
C595        C596   1.401       .  A
C595        H600   1.083       .  S
C596        C852   1.495       .  S
C596        C597   1.411       .  A
C597        C598   1.410       .  A
C597        H601   1.083       .  S
C598        C837   1.499       .  S
C598        C599   1.404       .  A
C599        H602   1.083       .  S
C603        C621   1.487       .  S
C603        C604   1.408       .  A
C603        C608   1.406       .  A
C604        C605   1.406       .  A
C604        H609   1.082       .  S
C605        C888   1.495       .  S
C605        C606   1.413       .  A
C606        C607   1.404       .  A
C606        H610   1.084       .  S
C607        C873   1.482       .  S
C607        C608   1.399       .  A
C608        H611   1.083       .  S
C612        C660   1.468       .  S
C612        C613   1.406       .  A
C612        C617   1.407       .  A
C613        C614   1.396       .  A
C613        H618   1.084       .  S
C614        C813   1.467       .  S
C614        C615   1.392       .  A
C615        C616   1.393       .  A
C615        H619   1.085       .  S
C616        C801   1.473       .  S
C616        C617   1.401       .  A
C617        H620   1.084       .  S
C621        C622   1.408       .  A
C621        C626   1.411       .  A
C622        C623   1.401       .  A
C622        H627   1.083       .  S
C623        C624   1.408       .  A
C623        O628   1.372       .  S
C624        C625   1.402       .  A
C625        C626   1.399       .  A
C625        H629   1.084       .  S
C626        O630   1.373       .  S
O628        H632   0.992       .  S
O630        H631   0.992       .  S
C633        C634   1.402       .  A
C633        C638   1.408       .  A
C634        C635   1.400       .  A
C634        H639   1.084       .  S
C635        C636   1.413       .  A
C635        O640   1.371       .  S
C636        C637   1.406       .  A
C637        C638   1.398       .  A
C637        H641   1.083       .  S
C638        O642   1.371       .  S
O640        H644   0.992       .  S
O642        H643   0.992       .  S
C645        C646   1.404       .  A
C645        C650   1.405       .  A
C646        C647   1.403       .  A
C646        H651   1.084       .  S
C647        C648   1.410       .  A
C647        O652   1.372       .  S
C648        C649   1.405       .  A
C649        C650   1.396       .  A
C649        H653   1.084       .  S
C650        O654   1.372       .  S
O652        H656   0.991       .  S
O654        H655   0.992       .  S
C657        C658   1.404       .  A
C657        C662   1.408       .  A
C658        C659   1.393       .  A
C658        H663   1.084       .  S
C659        C660   1.404       .  A
C659        O664   1.372       .  S
C660        C661   1.403       .  A
C661        C662   1.397       .  A
C661        H665   1.084       .  S
C662        O666   1.372       .  S
O664        H668   0.992       .  S
O666        H667   0.991       .  S
C669        C670   1.399       .  A
C669        C674   1.414       .  A
C670        C671   1.393       .  A
C670        H675   1.084       .  S
C671        C672   1.419       .  A
C671        O676   1.373       .  S
C672        C673   1.409       .  A
C673        C674   1.415       .  A
C673        H677   1.083       .  S
C674        O678   1.371       .  S
O676        H680   0.992       .  S
O678        H679   0.992       .  S
C681        C682   1.410       .  A
C681        C686   1.408       .  A
C682        C683   1.415       .  A
C682        H687   1.083       .  S
C683        C684   1.414       .  A
C683        O688   1.371       .  S
C684        C685   1.408       .  A
C685        C686   1.396       .  A
C685        H689   1.084       .  S
C686        O690   1.373       .  S
O688        H692   0.992       .  S
O690        H691   0.992       .  S
C693        C694   1.411       .  A
C693        C698   1.408       .  A
C694        C695   1.415       .  A
C694        H699   1.083       .  S
C695        C696   1.413       .  A
C695        O700   1.371       .  S
C696        C697   1.408       .  A
C697        C698   1.394       .  A
C697        H701   1.083       .  S
C698        O702   1.372       .  S
O700        H704   0.992       .  S
O702        H703   0.992       .  S
C705        C706   1.408       .  A
C705        C710   1.414       .  A
C706        C707   1.394       .  A
C706        H711   1.084       .  S
C707        C708   1.407       .  A
C707        O712   1.372       .  S
C708        C709   1.409       .  A
C709        C710   1.412       .  A
C709        H713   1.083       .  S
C710        O714   1.371       .  S
O712        H716   0.992       .  S
O714        H715   0.992       .  S
C717        C718   1.399       .  A
C717        C722   1.411       .  A
C718        C719   1.399       .  A
C718        H723   1.084       .  S
C719        C720   1.416       .  A
C719        O724   1.371       .  S
C720        C721   1.402       .  A
C721        C722   1.399       .  A
C721        H725   1.081       .  S
C722        O726   1.374       .  S
O724        H728   0.992       .  S
O726        H727   0.992       .  S
C729        C730   1.410       .  A
C729        C734   1.407       .  A
C730        C731   1.400       .  A
C730        H735   1.083       .  S
C731        C732   1.408       .  A
C731        O736   1.372       .  S
C732        C733   1.406       .  A
C733        C734   1.395       .  A
C733        H737   1.084       .  S
C734        O738   1.368       .  S
O736        H740   0.992       .  S
O738        H739   0.992       .  S
C741        C742   1.402       .  A
C741        C746   1.408       .  A
C742        C743   1.397       .  A
C742        H747   1.084       .  S
C743        C744   1.413       .  A
C743        O748   1.372       .  S
C744        C745   1.403       .  A
C745        C746   1.394       .  A
C745        H749   1.080       .  S
C746        O750   1.372       .  S
O748        H752   0.992       .  S
O750        H751   0.991       .  S
C753        C754   1.400       .  A
C753        C758   1.410       .  A
C754        C755   1.396       .  A
C754        H759   1.084       .  S
C755        C756   1.415       .  A
C755        O760   1.372       .  S
C756        C757   1.402       .  A
C757        C758   1.396       .  A
C757        H761   1.081       .  S
C758        O762   1.372       .  S
O760        H764   0.992       .  S
O762        H763   0.992       .  S
C765        C766   1.406       .  A
C765        C770   1.398       .  A
C766        C767   1.404       .  A
C766        H771   1.082       .  S
C767        C768   1.405       .  A
C767        O772   1.371       .  S
C768        C769   1.405       .  A
C769        C770   1.387       .  A
C769        H773   1.085       .  S
C770        O774   1.373       .  S
O772        H776   0.991       .  S
O774        H775   0.992       .  S
C777        C778   1.402       .  A
C777        C782   1.412       .  A
C778        C779   1.400       .  A
C778        H783   1.078       .  S
C779        C780   1.409       .  A
C779        O784   1.374       .  S
C780        C781   1.402       .  A
C781        C782   1.400       .  A
C781        H785   1.084       .  S
C782        O786   1.372       .  S
O784        H788   0.992       .  S
O786        H787   0.991       .  S
C789        C794   1.414       .  A
C790        C791   1.402       .  A
C790        H795   1.083       .  S
C791        C792   1.408   1_556  A
C791        O796   1.371       .  S
C793        C794   1.393       .  A
C793        H797   1.084       .  S
C794        O798   1.372       .  S
O796        H800   0.992   1_556  S
O798        H799   0.992       .  S
C801        C802   1.404       .  A
C801        C806   1.405       .  A
C802        C803   1.394       .  A
C802        H807   1.084       .  S
C803        C804   1.407       .  A
C803        O808   1.367       .  S
C804        C805   1.410       .  A
C805        C806   1.396       .  A
C805        H809   1.083       .  S
C806        O810   1.372       .  S
O808        H812   0.992       .  S
O810        H811   0.992       .  S
C813        C814   1.400       .  A
C813        C818   1.404       .  A
C814        C815   1.391       .  A
C814        H819   1.084       .  S
C815        C816   1.402       .  A
C815        O820   1.361       .  S
C816        C817   1.408       .  A
C817        C818   1.398       .  A
C817        H821   1.083       .  S
C818        O822   1.371       .  S
O820        H824   0.991       .  S
O822        H823   0.992       .  S
C825        C830   1.407   1_554  A
C826        C827   1.403       .  A
C826        H831   1.084       .  S
C827        O832   1.371       .  S
C828        C829   1.405   1_554  A
C829        C830   1.397       .  A
C829        H833   1.083       .  S
C830        O834   1.372       .  S
O832        H836   0.992       .  S
O834        H835   0.992       .  S
C837        C838   1.411       .  A
C837        C842   1.409       .  A
C838        C839   1.415       .  A
C838        H843   1.083       .  S
C839        C840   1.413       .  A
C839        O844   1.371       .  S
C840        C841   1.409       .  A
C841        C842   1.398       .  A
C841        H845   1.084       .  S
C842        O846   1.372       .  S
O844        H848   0.992       .  S
O846        H847   0.992       .  S
C849        C850   1.409       .  A
C849        C854   1.413       .  A
C850        C851   1.392       .  A
C850        H855   1.083       .  S
C851        C852   1.406       .  A
C851        O856   1.371       .  S
C852        C853   1.412       .  A
C853        C854   1.416       .  A
C853        H857   1.083       .  S
C854        O858   1.373       .  S
O856        H860   0.992       .  S
O858        H859   0.992       .  S
C861        C862   1.403       .  A
C861        C866   1.408       .  A
C862        C863   1.401       .  A
C863        C864   1.413       .  A
C863        O868   1.371       .  S
C864        C865   1.405       .  A
C865        C866   1.398       .  A
C865        H869   1.083       .  S
C866        O870   1.369       .  S
O868        H872   0.992       .  S
O870        H871   0.991       .  S
C873        C874   1.400       .  A
C873        C878   1.408       .  A
C874        C875   1.400       .  A
C874        H879   1.084       .  S
C875        C876   1.412       .  A
C875        O880   1.372       .  S
C876        C877   1.406       .  A
C877        C878   1.408       .  A
C877        H881   1.081       .  S
C878        O882   1.371       .  S
O880        H884   0.992       .  S
O882        H883   0.992   1_565  S
C885        C886   1.408       .  A
C885        C890   1.419       .  A
C886        C887   1.414       .  A
C886        H891   1.083       .  S
C887        C888   1.415       .  A
C887        O892   1.372       .  S
C888        C889   1.399       .  A
C889        C890   1.394       .  A
C889        H893   1.084       .  S
C890        O894   1.373       .  S
O892        H896   0.992       .  S
O894        H895   0.992       .  S
C897        C898   1.403       .  A
C897        C902   1.408       .  A
C898        C899   1.401       .  A
C898        H903   1.084       .  S
C899        C900   1.414       .  A
C899        O904   1.371       .  S
C900        C901   1.407       .  A
C901        C902   1.402       .  A
C901        H905   1.083       .  S
C902        O906   1.372       .  S
O904        H908   0.992       .  S
O906       H1815   0.992       .  S
H907       O1814   0.992       .  S
O909        C936   1.274       .  A
O909       Mn935   2.107   1_645  S
C910       O1397   1.272   1_554  A
C910        O940   1.274       .  A
C910       C1351   1.479       .  S
O911      Mn1372   2.176   1_545  S
O911       Mn929   2.125       .  S
O912       C1376   1.273       .  A
O913        C936   1.264       .  A
O914        C941   1.255       .  A
O914       Mn933   2.100   1_545  S
O915       Mn935   1.954   1_655  S
O915        C931   1.217       .  S
C916        O919   1.257       .  A
C916       C1303   1.497       .  S
C916        O942   1.212       .  S
O917       Mn951   2.128       .  S
O917      Mn1387   2.179   1_445  S
Mn918       O947   2.148       .  S
Mn918       O923   2.108   1_565  S
Mn918      O1404   2.126   1_554  S
Mn918      O1365   2.176   1_564  S
Mn918       O924   2.166       .  S
O919      Mn1387   2.157       .  S
O920        C922   1.272       .  A
O920       Mn927   2.091   1_655  S
C921        O947   1.259       .  A
C921       C1339   1.496       .  S
C921        O934   1.213       .  S
C922       O1366   1.273   1_554  A
C922       C1315   1.479       .  S
O923        C948   1.252       .  A
O924      Mn1400   2.117   1_554  S
O925      Mn1383   1.928   1_554  S
O925        C948   1.215       .  S
C926        O952   1.278       .  A
C926        O928   1.262       .  A
C926       C1270   1.477       .  S
Mn927       O942   1.954   1_455  S
O928       Mn951   2.049   1_655  S
Mn929       O945   2.058       .  S
Mn929      O1379   1.928       .  S
O930        C932   1.272       .  A
C931        O949   1.258       .  A
C931       C1294   1.498       .  S
C932        O945   1.261       .  A
C932       C1219   1.456       .  S
Mn933      O1373   2.157       .  S
Mn933       O949   2.142       .  S
Mn933      O1371   2.179   1_665  S
O934       Mn937   1.954       .  S
C936       C1258   1.480       .  S
Mn937       O944   2.109   1_565  S
C938        O944   1.274       .  A
C938        O954   1.264       .  A
C938       C1231   1.480       .  S
O939      Mn1405   1.951   1_655  S
O939        C941   1.222       .  S
C941       C1282   1.478       .  S
O943       C1364   1.272       .  A
O943       Mn946   2.091       .  S
Mn946      O1378   2.117       .  S
Mn946       O953   1.966       .  S
C948       C1243   1.477       .  S
O950        C955   1.257       .  A
O950      Mn1372   2.126       .  S
Mn951      O1393   1.951   1_455  S
O953        C955   1.218       .  S
C955       C1330   1.485       .  S
C956       C1246   1.471       .  S
C956        C957   1.406       .  A
C956       C1415   1.406       .  A
C957        C958   1.403       .  A
C957        H962   1.084       .  S
C958       C1207   1.474       .  S
C958        C959   1.395       .  A
C959       C1414   1.395       .  A
C959        H963   1.085       .  S
C960       C1195   1.474       .  S
C960       C1413   1.395       .  A
C960        C961   1.400       .  A
C961       C1410   1.406       .  A
C961        H964   1.084       .  S
C965       C1279   1.482       .  S
C965       C1420   1.411       .  A
C965        C970   1.412       .  A
C966       C1419   1.411       .  A
C966        C967   1.403       .  A
C966        H971   1.084       .  S
C967       C1171   1.477       .  S
C967       C1422   1.392       .  A
C968       C1421   1.392       .  A
C968        C969   1.395       .  A
C968        H972   1.084       .  S
C969       C1186   1.484       .  S
C969        C970   1.405       .  A
C970        H973   1.083       .  S
C974       C1318   1.490       .  S
C974        C975   1.408   1_554  A
C974        C979   1.412       .  A
C975        C976   1.400       .  A
C975       H1434   1.083       .  S
C976       C1616   1.490       .  S
C976        C977   1.408   1_556  A
C977        C978   1.409       .  A
C977        H981   1.083       .  S
C978       C1147   1.497       .  S
C978        C979   1.405       .  A
C979        H982   1.083       .  S
H980       C1429   1.083       .  S
C983       C1354   1.493       .  S
C983       C1438   1.412   1_554  A
C983        C988   1.410       .  A
C984       C1437   1.412       .  A
C984        C985   1.404       .  A
C984        H989   1.083       .  S
C985       C1135   1.496       .  S
C985       C1440   1.408       .  A
C986       C1439   1.408   1_554  A
C986        C987   1.409       .  A
C986        H990   1.084       .  S
C987       C1123   1.495       .  S
C987        C988   1.403       .  A
C988        H991   1.083       .  S
O992       C1019   1.265       .  A
O992      Mn1018   2.065       .  S
C993       O1026   1.264       .  A
C993       O1023   1.274       .  A
C993       C1183   1.486       .  S
O994      Mn1001   2.170       .  S
O994      Mn1012   2.107       .  S
O994      Mn1016   2.177       .  S
O994      Mn1018   2.129       .  S
O995       C1005   1.263       .  A
O995      Mn1029   2.058       .  S
O996       C1019   1.272       .  A
O996      Mn1012   2.097       .  S
O997       C1024   1.258       .  A
O997      Mn1016   2.147       .  S
O998      Mn1029   1.943       .  S
O998      Mn1018   1.945       .  S
O998       C1014   1.221       .  S
C999       O1002   1.258       .  A
C999       C1138   1.499       .  S
C999       O1025   1.218       .  S
O1000     Mn1020   2.112       .  S
O1000     Mn1001   2.157       .  S
O1000     Mn1034   2.112       .  S
O1000     Mn1016   2.162       .  S
Mn1001     O1030   2.132       .  S
Mn1001     O1006   2.144       .  S
Mn1001     O1033   2.079       .  S
Mn1001     O1007   2.180       .  S
O1002     Mn1016   2.141       .  S
O1003      C1005   1.273       .  A
O1003     Mn1010   2.105       .  S
C1004      O1030   1.256       .  A
C1004      C1159   1.493       .  S
C1004      O1017   1.216       .  S
C1005      C1210   1.478       .  S
O1006      C1031   1.256       .  A
O1007     Mn1010   2.113       .  S
O1007     Mn1029   2.129       .  S
O1007     Mn1016   2.181       .  S
O1008     Mn1012   1.952       .  S
O1008     Mn1034   1.966       .  S
O1008      C1031   1.215       .  S
C1009      O1035   1.272       .  A
C1009      O1011   1.272       .  A
C1009      C1078   1.474       .  S
Mn1010     O1023   2.107       .  S
Mn1010     O1025   1.955       .  S
Mn1010     O1017   1.950       .  S
O1011     Mn1034   2.093       .  S
Mn1012     O1028   2.112       .  S
Mn1012     O1022   1.949       .  S
O1013      C1015   1.264       .  A
O1013     Mn1018   2.062       .  S
C1014      O1032   1.253       .  A
C1014      C1102   1.477       .  S
C1015      O1028   1.275       .  A
C1015      C1174   1.482       .  S
Mn1016     O1032   2.096       .  S
O1017     Mn1020   1.958       .  S
Mn1018     O1036   1.948       .  S
C1019      C1198   1.477       .  S
Mn1020     O1027   2.086       .  S
Mn1020     O1035   2.088       .  S
Mn1020     O1025   1.967       .  S
C1021      O1027   1.271       .  A
C1021      O1037   1.273       .  A
C1021      C1087   1.476       .  S
O1022     Mn1034   1.957       .  S
O1022      C1024   1.214       .  S
C1024      C1126   1.497       .  S
O1026     Mn1029   2.064       .  S
Mn1029     O1036   1.942       .  S
C1031      C1150   1.498       .  S
O1033      C1038   1.250       .  A
Mn1034     O1037   2.097       .  S
O1036      C1038   1.221       .  S
C1038      C1111   1.468       .  S
C1039      C1099   1.475       .  S
C1039      C1040   1.410       .  A
C1039      C1044   1.408       .  A
C1040      C1041   1.405       .  A
C1040      H1045   1.084       .  S
C1041      C1234   1.477       .  S
C1041      C1042   1.393       .  A
C1042      C1043   1.393       .  A
C1042      H1046   1.085       .  S
C1043      C1222   1.470       .  S
C1043      C1044   1.399       .  A
C1044      H1047   1.084       .  S
C1048      C1090   1.488       .  S
C1048      C1049   1.408       .  A
C1048      C1053   1.411       .  A
C1049      C1050   1.401       .  A
C1049      H1054   1.083       .  S
C1050      C1306   1.495       .  S
C1050      C1051   1.411       .  A
C1051      C1052   1.410       .  A
C1051      H1055   1.083       .  S
C1052      C1291   1.499       .  S
C1052      C1053   1.404       .  A
C1053      H1056   1.083       .  S
C1057      C1075   1.487       .  S
C1057      C1058   1.408       .  A
C1057      C1062   1.406       .  A
C1058      C1059   1.406       .  A
C1058      H1063   1.082       .  S
C1059      C1342   1.495       .  S
C1059      C1060   1.413       .  A
C1060      C1061   1.404       .  A
C1060      H1064   1.084       .  S
C1061      C1327   1.482       .  S
C1061      C1062   1.399       .  A
C1062      H1065   1.083       .  S
C1066      C1114   1.468       .  S
C1066      C1067   1.406       .  A
C1066      C1071   1.407       .  A
C1067      C1068   1.396       .  A
C1067      H1072   1.084       .  S
C1068      C1267   1.467       .  S
C1068      C1069   1.392       .  A
C1069      C1070   1.393       .  A
C1069      H1073   1.085       .  S
C1070      C1255   1.473       .  S
C1070      C1071   1.401       .  A
C1071      H1074   1.084       .  S
C1075      C1076   1.408       .  A
C1075      C1080   1.411       .  A
C1076      C1077   1.401       .  A
C1076      H1081   1.083       .  S
C1077      C1078   1.408       .  A
C1077      O1082   1.372       .  S
C1078      C1079   1.402       .  A
C1079      C1080   1.399       .  A
C1079      H1083   1.084       .  S
C1080      O1084   1.373       .  S
O1082      H1086   0.992       .  S
O1084      H1085   0.992       .  S
C1087      C1088   1.402       .  A
C1087      C1092   1.408       .  A
C1088      C1089   1.400       .  A
C1088      H1093   1.084       .  S
C1089      C1090   1.413       .  A
C1089      O1094   1.371       .  S
C1090      C1091   1.406       .  A
C1091      C1092   1.398       .  A
C1091      H1095   1.083       .  S
C1092      O1096   1.371       .  S
O1094      H1098   0.992       .  S
O1096      H1097   0.992       .  S
C1099      C1100   1.404       .  A
C1099      C1104   1.405       .  A
C1100      C1101   1.403       .  A
C1100      H1105   1.084       .  S
C1101      C1102   1.410       .  A
C1101      O1106   1.372       .  S
C1102      C1103   1.405       .  A
C1103      C1104   1.396       .  A
C1103      H1107   1.084       .  S
C1104      O1108   1.372       .  S
O1106      H1110   0.991       .  S
O1108      H1109   0.992       .  S
C1111      C1112   1.404       .  A
C1111      C1116   1.408       .  A
C1112      C1113   1.393       .  A
C1112      H1117   1.084       .  S
C1113      C1114   1.404       .  A
C1113      O1118   1.372       .  S
C1114      C1115   1.403       .  A
C1115      C1116   1.397       .  A
C1115      H1119   1.084       .  S
C1116      O1120   1.372       .  S
O1118      H1122   0.992       .  S
O1120      H1121   0.991       .  S
C1123      C1124   1.399       .  A
C1123      C1128   1.414       .  A
C1124      C1125   1.393       .  A
C1124      H1129   1.084       .  S
C1125      C1126   1.419       .  A
C1125      O1130   1.373       .  S
C1126      C1127   1.409       .  A
C1127      C1128   1.415       .  A
C1127      H1131   1.083       .  S
C1128      O1132   1.371       .  S
O1130      H1134   0.992       .  S
O1132      H1133   0.992       .  S
C1135      C1136   1.410       .  A
C1135      C1140   1.408       .  A
C1136      C1137   1.415       .  A
C1136      H1141   1.083       .  S
C1137      C1138   1.414       .  A
C1137      O1142   1.371       .  S
C1138      C1139   1.408       .  A
C1139      C1140   1.396       .  A
C1139      H1143   1.084       .  S
C1140      O1144   1.373       .  S
O1142      H1146   0.992       .  S
O1144      H1145   0.992       .  S
C1147      C1148   1.411       .  A
C1147      C1152   1.408       .  A
C1148      C1149   1.415       .  A
C1148      H1153   1.083       .  S
C1149      C1150   1.413       .  A
C1149      O1154   1.371       .  S
C1150      C1151   1.408       .  A
C1151      C1152   1.396       .  A
C1151      H1155   1.083       .  S
C1152      O1156   1.373       .  S
O1154      H1158   0.992       .  S
O1156      H1157   0.992       .  S
C1159      C1160   1.408       .  A
C1159      C1164   1.414       .  A
C1160      C1161   1.394       .  A
C1160      H1165   1.084       .  S
C1161      C1162   1.407       .  A
C1161      O1166   1.372       .  S
C1162      C1430   1.490       .  S
C1162      C1163   1.409       .  A
C1163      C1164   1.412       .  A
C1163      H1167   1.083       .  S
C1164      O1168   1.371       .  S
O1166      H1170   0.992       .  S
O1168      H1169   0.992       .  S
C1171      C1172   1.399       .  A
C1171      C1176   1.411       .  A
C1172      C1173   1.399       .  A
C1172      H1177   1.084       .  S
C1173      C1174   1.416       .  A
C1173      O1178   1.371       .  S
C1174      C1175   1.402       .  A
C1175      C1176   1.399       .  A
C1175      H1179   1.081       .  S
C1176      O1180   1.374       .  S
O1178      H1182   0.992       .  S
O1180      H1181   0.992       .  S
C1183      C1184   1.410       .  A
C1183      C1188   1.407       .  A
C1184      C1185   1.400       .  A
C1184      H1189   1.083       .  S
C1185      C1186   1.408       .  A
C1185      O1190   1.372       .  S
C1186      C1187   1.406       .  A
C1187      C1188   1.395       .  A
C1187      H1191   1.084       .  S
C1188      O1192   1.368       .  S
O1190      H1194   0.992       .  S
O1192      H1193   0.992       .  S
C1195      C1196   1.402       .  A
C1195      C1200   1.408       .  A
C1196      C1197   1.397       .  A
C1196      H1201   1.084       .  S
C1197      C1198   1.413       .  A
C1197      O1202   1.372       .  S
C1198      C1199   1.403       .  A
C1199      C1200   1.394       .  A
C1199      H1203   1.080       .  S
C1200      O1204   1.372       .  S
O1202      H1206   0.992       .  S
O1204      H1205   0.991       .  S
C1207      C1208   1.400       .  A
C1207      C1212   1.410       .  A
C1208      C1209   1.396       .  A
C1208      H1213   1.084       .  S
C1209      C1210   1.415       .  A
C1209      O1214   1.372       .  S
C1210      C1211   1.402       .  A
C1211      C1212   1.396       .  A
C1211      H1215   1.081       .  S
C1212      O1216   1.372       .  S
O1214      H1218   0.992       .  S
O1216      H1217   0.992       .  S
C1219      C1220   1.406       .  A
C1219      C1224   1.398       .  A
C1220      C1221   1.404       .  A
C1220      H1225   1.082       .  S
C1221      C1222   1.405       .  A
C1221      O1226   1.371       .  S
C1222      C1223   1.405       .  A
C1223      C1224   1.387       .  A
C1223      H1227   1.085       .  S
C1224      O1228   1.373       .  S
O1226      H1230   0.991       .  S
O1228      H1229   0.992       .  S
C1231      C1232   1.402       .  A
C1231      C1236   1.412       .  A
C1232      C1233   1.400       .  A
C1232      H1237   1.078       .  S
C1233      C1234   1.409       .  A
C1233      O1238   1.374       .  S
C1234      C1235   1.402       .  A
C1235      C1236   1.400       .  A
C1235      H1239   1.084       .  S
C1236      O1240   1.372       .  S
O1238      H1242   0.992       .  S
O1240      H1241   0.991       .  S
C1243      C1698   1.405   1_554  A
C1243      C1248   1.414       .  A
C1244      C1697   1.405       .  A
C1244      C1245   1.402       .  A
C1244      H1249   1.083       .  S
C1245      C1246   1.408       .  A
C1245      O1250   1.371       .  S
C1246      C1701   1.397       .  A
C1247      C1700   1.397       .  A
C1247      C1248   1.393       .  A
C1247      H1251   1.084       .  S
C1248      O1252   1.372       .  S
O1250      H1254   0.992       .  S
O1252      H1253   0.992       .  S
C1255      C1256   1.404       .  A
C1255      C1260   1.405       .  A
C1256      C1257   1.394       .  A
C1256      H1261   1.084       .  S
C1257      C1258   1.407       .  A
C1257      O1262   1.367       .  S
C1258      C1259   1.410       .  A
C1259      C1260   1.396       .  A
C1259      H1263   1.083       .  S
C1260      O1264   1.372       .  S
O1262      H1266   0.992       .  S
O1264      H1265   0.992       .  S
C1267      C1268   1.400       .  A
C1267      C1272   1.404       .  A
C1268      C1269   1.391       .  A
C1268      H1273   1.084       .  S
C1269      C1270   1.402       .  A
C1269      O1274   1.361       .  S
C1270      C1271   1.408       .  A
C1271      C1272   1.398       .  A
C1271      H1275   1.083       .  S
C1272      O1276   1.371       .  S
O1274      H1278   0.991       .  S
O1276      H1277   0.992       .  S
C1279      C1734   1.406       .  A
C1279      C1284   1.407       .  A
C1280      C1733   1.406       .  A
C1280      C1281   1.403       .  A
C1280      H1285   1.084       .  S
C1281      C1736   1.409       .  A
C1281      O1286   1.371       .  S
C1282      C1735   1.409       .  A
C1282      C1283   1.405       .  A
C1283      C1284   1.397       .  A
C1283      H1287   1.083       .  S
C1284      O1288   1.372       .  S
O1286      H1290   0.992       .  S
O1288      H1289   0.992       .  S
C1291      C1292   1.411       .  A
C1291      C1296   1.409       .  A
C1292      C1293   1.415       .  A
C1292      H1297   1.083       .  S
C1293      C1294   1.413       .  A
C1293      O1298   1.371       .  S
C1294      C1295   1.409       .  A
C1295      C1296   1.398       .  A
C1295      H1299   1.084       .  S
C1296      O1300   1.372       .  S
O1298      H1302   0.992       .  S
O1300      H1301   0.992       .  S
C1303      C1304   1.409       .  A
C1303      C1308   1.413       .  A
C1304      C1305   1.392       .  A
C1304      H1309   1.083       .  S
C1305      C1306   1.406       .  A
C1305      O1310   1.371       .  S
C1306      C1307   1.412       .  A
C1307      C1308   1.416       .  A
C1307      H1311   1.083       .  S
C1308      O1312   1.373       .  S
O1310      H1314   0.992       .  S
O1312      H1313   0.992       .  S
C1315      C1316   1.403   1_554  A
C1315      C1320   1.408       .  A
C1316      C1317   1.401       .  A
C1316      H1775   1.084       .  S
C1317      C1318   1.413   1_556  A
C1317      O1322   1.371       .  S
C1318      C1319   1.405       .  A
C1319      C1320   1.398       .  A
C1319      H1323   1.083       .  S
C1320      O1324   1.369       .  S
H1321      C1770   1.084       .  S
O1322      H1326   0.992       .  S
O1324      H1325   0.991       .  S
C1327      C1328   1.400       .  A
C1327      C1332   1.408       .  A
C1328      C1329   1.400       .  A
C1328      H1333   1.084       .  S
C1329      C1330   1.412       .  A
C1329      O1334   1.372       .  S
C1330      C1331   1.406       .  A
C1331      C1332   1.408       .  A
C1331      H1335   1.081       .  S
C1332      O1336   1.371       .  S
O1334      H1338   0.992       .  S
O1336      H1337   0.992   1_565  S
C1339      C1340   1.408       .  A
C1339      C1344   1.419       .  A
C1340      C1341   1.414       .  A
C1340      H1345   1.083       .  S
C1341      C1342   1.415       .  A
C1341      O1346   1.372       .  S
C1342      C1343   1.399       .  A
C1343      C1344   1.394       .  A
C1343      H1347   1.084       .  S
C1344      O1348   1.373       .  S
O1346      H1350   0.992       .  S
O1348      H1349   0.992       .  S
C1351      C1352   1.403   1_554  A
C1351      C1356   1.408       .  A
C1352      C1353   1.401       .  A
C1352      H1357   1.084       .  S
C1353      C1354   1.414   1_556  A
C1353      O1358   1.371       .  S
C1354      C1355   1.407       .  A
C1355      C1356   1.402       .  A
C1355      H1359   1.083       .  S
C1356      O1360   1.372       .  S
O1358      H1362   0.992       .  S
O1363      C1390   1.274       .  A
O1363     Mn1389   2.107   1_645  S
C1364      O1394   1.274       .  A
C1364      C1805   1.479       .  S
O1365     Mn1383   2.125       .  S
O1367      C1390   1.264       .  A
O1368      C1395   1.255       .  A
O1368     Mn1387   2.100   1_545  S
O1369     Mn1389   1.954   1_655  S
O1369      C1385   1.217       .  S
C1370      O1373   1.257       .  A
C1370      C1757   1.497       .  S
C1370      O1396   1.212       .  S
O1371     Mn1405   2.128       .  S
Mn1372     O1401   2.148       .  S
Mn1372     O1377   2.108   1_565  S
Mn1372     O1378   2.166       .  S
O1374      C1376   1.272       .  A
O1374     Mn1381   2.091   1_655  S
C1375      O1401   1.259       .  A
C1375      C1793   1.496       .  S
C1375      O1388   1.213       .  S
C1376      C1769   1.479       .  S
O1377      C1402   1.252       .  A
O1379      C1402   1.215       .  S
C1380      O1406   1.278       .  A
C1380      O1382   1.262       .  A
C1380      C1724   1.477       .  S
Mn1381     O1396   1.954   1_455  S
O1382     Mn1405   2.049   1_655  S
Mn1383     O1399   2.058       .  S
O1384      C1386   1.272       .  A
C1385      O1403   1.258       .  A
C1385      C1748   1.498       .  S
C1386      O1399   1.261       .  A
C1386      C1673   1.456       .  S
Mn1387     O1403   2.142   1_554  S
O1388     Mn1391   1.954       .  S
C1390      C1712   1.480       .  S
Mn1391     O1398   2.109   1_565  S
C1392      O1398   1.274       .  A
C1392      O1408   1.264       .  A
C1392      C1685   1.480       .  S
O1393      C1395   1.222       .  S
C1395      C1736   1.478       .  S
O1397     Mn1400   2.091       .  S
Mn1400     O1407   1.966       .  S
C1402      C1697   1.477       .  S
O1404      C1409   1.257       .  A
O1407      C1409   1.218       .  S
C1409      C1784   1.485       .  S
C1410      C1700   1.471       .  S
C1410      C1411   1.407   1_554  A
C1411      C1412   1.403       .  A
C1411      H1416   1.084       .  S
C1412      C1661   1.474       .  S
C1412      C1413   1.395   1_556  A
C1413      H1417   1.085       .  S
C1414      C1649   1.474       .  S
C1414      C1415   1.400       .  A
C1415      H1418   1.084       .  S
C1419      C1733   1.482       .  S
C1419      C1424   1.412   1_554  A
C1420      C1421   1.403       .  A
C1420      H1425   1.084       .  S
C1421      C1625   1.477       .  S
C1422      C1423   1.395   1_554  A
C1422      H1426   1.084       .  S
C1423      C1640   1.484       .  S
C1423      C1424   1.405       .  A
C1424      H1427   1.083       .  S
C1428      C1772   1.490       .  S
C1428      C1429   1.408       .  A
C1428      C1433   1.412       .  A
C1429      C1430   1.400       .  A
C1430      C1431   1.408       .  A
C1431      C1432   1.409       .  A
C1431      H1435   1.084       .  S
C1432      C1601   1.497       .  S
C1432      C1433   1.405       .  A
C1433      H1436   1.083       .  S
C1437      C1808   1.493       .  S
C1437      C1442   1.410       .  A
C1438      C1439   1.404       .  A
C1438      H1443   1.083       .  S
C1439      C1589   1.496       .  S
C1440      C1441   1.409       .  A
C1440      H1444   1.084       .  S
C1441      C1577   1.495       .  S
C1441      C1442   1.403       .  A
C1442      H1445   1.083       .  S
O1446      C1473   1.265       .  A
O1446     Mn1472   2.065       .  S
C1447      O1480   1.264       .  A
C1447      O1477   1.274       .  A
C1447      C1637   1.486       .  S
O1448     Mn1455   2.170       .  S
O1448     Mn1466   2.107       .  S
O1448     Mn1470   2.177       .  S
O1448     Mn1472   2.129       .  S
O1449      C1459   1.263       .  A
O1449     Mn1483   2.058       .  S
O1450      C1473   1.272       .  A
O1450     Mn1466   2.097       .  S
O1451      C1478   1.258       .  A
O1451     Mn1470   2.147       .  S
O1452     Mn1483   1.943       .  S
O1452     Mn1472   1.944       .  S
O1452      C1468   1.221       .  S
C1453      O1456   1.258       .  A
C1453      C1592   1.499       .  S
C1453      O1479   1.218       .  S
O1454     Mn1474   2.112       .  S
O1454     Mn1455   2.157       .  S
O1454     Mn1488   2.112       .  S
O1454     Mn1470   2.162       .  S
Mn1455     O1484   2.132       .  S
Mn1455     O1460   2.144       .  S
Mn1455     O1487   2.079       .  S
Mn1455     O1461   2.180       .  S
O1456     Mn1470   2.141       .  S
O1457      C1459   1.273       .  A
O1457     Mn1464   2.105       .  S
C1458      O1484   1.256       .  A
C1458      C1613   1.493       .  S
C1458      O1471   1.216       .  S
C1459      C1664   1.478       .  S
O1460      C1485   1.256       .  A
O1461     Mn1464   2.113       .  S
O1461     Mn1483   2.129       .  S
O1461     Mn1470   2.181       .  S
O1462     Mn1466   1.951       .  S
O1462     Mn1488   1.966       .  S
O1462      C1485   1.215       .  S
C1463      O1489   1.272       .  A
C1463      O1465   1.272       .  A
C1463      C1532   1.474       .  S
Mn1464     O1477   2.107       .  S
Mn1464     O1479   1.955       .  S
Mn1464     O1471   1.950       .  S
O1465     Mn1488   2.093       .  S
Mn1466     O1482   2.112       .  S
Mn1466     O1476   1.949       .  S
O1467      C1469   1.264       .  A
O1467     Mn1472   2.062       .  S
C1468      O1486   1.253       .  A
C1468      C1556   1.477       .  S
C1469      O1482   1.275       .  A
C1469      C1628   1.482       .  S
Mn1470     O1486   2.096       .  S
O1471     Mn1474   1.958       .  S
Mn1472     O1490   1.948       .  S
C1473      C1652   1.477       .  S
Mn1474     O1481   2.086       .  S
Mn1474     O1489   2.088       .  S
Mn1474     O1479   1.967       .  S
C1475      O1481   1.271       .  A
C1475      O1491   1.273       .  A
C1475      C1541   1.476       .  S
O1476     Mn1488   1.958       .  S
O1476      C1478   1.214       .  S
C1478      C1580   1.497       .  S
O1480     Mn1483   2.064       .  S
Mn1483     O1490   1.942       .  S
C1485      C1604   1.498       .  S
O1487      C1492   1.250       .  A
Mn1488     O1491   2.097       .  S
O1490      C1492   1.221       .  S
C1492      C1565   1.468       .  S
C1493      C1553   1.475       .  S
C1493      C1494   1.410       .  A
C1493      C1498   1.408       .  A
C1494      C1495   1.405       .  A
C1494      H1499   1.084       .  S
C1495      C1688   1.477       .  S
C1495      C1496   1.393       .  A
C1496      C1497   1.393       .  A
C1496      H1500   1.085       .  S
C1497      C1676   1.470       .  S
C1497      C1498   1.399       .  A
C1498      H1501   1.084       .  S
C1502      C1544   1.488       .  S
C1502      C1503   1.408       .  A
C1502      C1507   1.411       .  A
C1503      C1504   1.401       .  A
C1503      H1508   1.083       .  S
C1504      C1760   1.495       .  S
C1504      C1505   1.411       .  A
C1505      C1506   1.410       .  A
C1505      H1509   1.083       .  S
C1506      C1745   1.499       .  S
C1506      C1507   1.404       .  A
C1507      H1510   1.083       .  S
C1511      C1529   1.487       .  S
C1511      C1512   1.408       .  A
C1511      C1516   1.406       .  A
C1512      C1513   1.406       .  A
C1512      H1517   1.082       .  S
C1513      C1796   1.495       .  S
C1513      C1514   1.413       .  A
C1514      C1515   1.404       .  A
C1514      H1518   1.084       .  S
C1515      C1781   1.482       .  S
C1515      C1516   1.399       .  A
C1516      H1519   1.083       .  S
C1520      C1568   1.468       .  S
C1520      C1521   1.406       .  A
C1520      C1525   1.407       .  A
C1521      C1522   1.396       .  A
C1521      H1526   1.084       .  S
C1522      C1721   1.467       .  S
C1522      C1523   1.392       .  A
C1523      C1524   1.393       .  A
C1523      H1527   1.085       .  S
C1524      C1709   1.473       .  S
C1524      C1525   1.401       .  A
C1525      H1528   1.084       .  S
C1529      C1530   1.408       .  A
C1529      C1534   1.411       .  A
C1530      C1531   1.401       .  A
C1530      H1535   1.083       .  S
C1531      C1532   1.408       .  A
C1531      O1536   1.372       .  S
C1532      C1533   1.402       .  A
C1533      C1534   1.399       .  A
C1533      H1537   1.084       .  S
C1534      O1538   1.373       .  S
O1536      H1540   0.992       .  S
O1538      H1539   0.992       .  S
C1541      C1542   1.402       .  A
C1541      C1546   1.408       .  A
C1542      C1543   1.400       .  A
C1542      H1547   1.084       .  S
C1543      C1544   1.413       .  A
C1543      O1548   1.371       .  S
C1544      C1545   1.406       .  A
C1545      C1546   1.398       .  A
C1545      H1549   1.083       .  S
C1546      O1550   1.371       .  S
O1548      H1552   0.992       .  S
O1550      H1551   0.992       .  S
C1553      C1554   1.404       .  A
C1553      C1558   1.405       .  A
C1554      C1555   1.403       .  A
C1554      H1559   1.084       .  S
C1555      C1556   1.410       .  A
C1555      O1560   1.372       .  S
C1556      C1557   1.405       .  A
C1557      C1558   1.396       .  A
C1557      H1561   1.084       .  S
C1558      O1562   1.372       .  S
O1560      H1564   0.991       .  S
O1562      H1563   0.992       .  S
C1565      C1566   1.404       .  A
C1565      C1570   1.408       .  A
C1566      C1567   1.393       .  A
C1566      H1571   1.084       .  S
C1567      C1568   1.404       .  A
C1567      O1572   1.372       .  S
C1568      C1569   1.403       .  A
C1569      C1570   1.397       .  A
C1569      H1573   1.084       .  S
C1570      O1574   1.372       .  S
O1572      H1576   0.992       .  S
O1574      H1575   0.991       .  S
C1577      C1578   1.399       .  A
C1577      C1582   1.414       .  A
C1578      C1579   1.393       .  A
C1578      H1583   1.084       .  S
C1579      C1580   1.419       .  A
C1579      O1584   1.373       .  S
C1580      C1581   1.409       .  A
C1581      C1582   1.415       .  A
C1581      H1585   1.083       .  S
C1582      O1586   1.371       .  S
O1584      H1588   0.992       .  S
O1586      H1587   0.992       .  S
C1589      C1590   1.410       .  A
C1589      C1594   1.408       .  A
C1590      C1591   1.415       .  A
C1590      H1595   1.083       .  S
C1591      C1592   1.414       .  A
C1591      O1596   1.371       .  S
C1592      C1593   1.408       .  A
C1593      C1594   1.396       .  A
C1593      H1597   1.084       .  S
C1594      O1598   1.373       .  S
O1596      H1600   0.992       .  S
O1598      H1599   0.992       .  S
C1601      C1602   1.411       .  A
C1601      C1606   1.408       .  A
C1602      C1603   1.415       .  A
C1602      H1607   1.083       .  S
C1603      C1604   1.413       .  A
C1603      O1608   1.371       .  S
C1604      C1605   1.408       .  A
C1605      C1606   1.394       .  A
C1605      H1609   1.083       .  S
C1606      O1610   1.372       .  S
O1608      H1612   0.992       .  S
O1610      H1611   0.992       .  S
C1613      C1614   1.408       .  A
C1613      C1618   1.414       .  A
C1614      C1615   1.394       .  A
C1614      H1619   1.084       .  S
C1615      C1616   1.407       .  A
C1615      O1620   1.372       .  S
C1616      C1617   1.409       .  A
C1617      C1618   1.412       .  A
C1617      H1621   1.083       .  S
C1618      O1622   1.371       .  S
O1620      H1624   0.992       .  S
O1622      H1623   0.992       .  S
C1625      C1626   1.399       .  A
C1625      C1630   1.411       .  A
C1626      C1627   1.399       .  A
C1626      H1631   1.084       .  S
C1627      C1628   1.416       .  A
C1627      O1632   1.371       .  S
C1628      C1629   1.402       .  A
C1629      C1630   1.399       .  A
C1629      H1633   1.081       .  S
C1630      O1634   1.374       .  S
O1632      H1636   0.992       .  S
O1634      H1635   0.992       .  S
C1637      C1638   1.410       .  A
C1637      C1642   1.407       .  A
C1638      C1639   1.400       .  A
C1638      H1643   1.083       .  S
C1639      C1640   1.408       .  A
C1639      O1644   1.372       .  S
C1640      C1641   1.406       .  A
C1641      C1642   1.395       .  A
C1641      H1645   1.084       .  S
C1642      O1646   1.368       .  S
O1644      H1648   0.992       .  S
O1646      H1647   0.992       .  S
C1649      C1650   1.402       .  A
C1649      C1654   1.408       .  A
C1650      C1651   1.397       .  A
C1650      H1655   1.084       .  S
C1651      C1652   1.413       .  A
C1651      O1656   1.372       .  S
C1652      C1653   1.403       .  A
C1653      C1654   1.394       .  A
C1653      H1657   1.080       .  S
C1654      O1658   1.372       .  S
O1656      H1660   0.992       .  S
O1658      H1659   0.991       .  S
C1661      C1662   1.400       .  A
C1661      C1666   1.410       .  A
C1662      C1663   1.396       .  A
C1662      H1667   1.084       .  S
C1663      C1664   1.415       .  A
C1663      O1668   1.372       .  S
C1664      C1665   1.402       .  A
C1665      C1666   1.396       .  A
C1665      H1669   1.081       .  S
C1666      O1670   1.372       .  S
O1668      H1672   0.992       .  S
O1670      H1671   0.992       .  S
C1673      C1674   1.406       .  A
C1673      C1678   1.398       .  A
C1674      C1675   1.404       .  A
C1674      H1679   1.082       .  S
C1675      C1676   1.405       .  A
C1675      O1680   1.371       .  S
C1676      C1677   1.405       .  A
C1677      C1678   1.387       .  A
C1677      H1681   1.085       .  S
C1678      O1682   1.373       .  S
O1680      H1684   0.991       .  S
O1682      H1683   0.992       .  S
C1685      C1686   1.402       .  A
C1685      C1690   1.412       .  A
C1686      C1687   1.400       .  A
C1686      H1691   1.078       .  S
C1687      C1688   1.409       .  A
C1687      O1692   1.374       .  S
C1688      C1689   1.402       .  A
C1689      C1690   1.400       .  A
C1689      H1693   1.084       .  S
C1690      O1694   1.372       .  S
O1692      H1696   0.992       .  S
O1694      H1695   0.991       .  S
C1697      C1702   1.414       .  A
C1698      C1699   1.402       .  A
C1698      H1703   1.083       .  S
C1699      C1700   1.408   1_556  A
C1699      O1704   1.371       .  S
C1701      C1702   1.393       .  A
C1701      H1705   1.084       .  S
C1702      O1706   1.372       .  S
O1704      H1708   0.992   1_556  S
O1706      H1707   0.992       .  S
C1709      C1710   1.404       .  A
C1709      C1714   1.405       .  A
C1710      C1711   1.394       .  A
C1710      H1715   1.084       .  S
C1711      C1712   1.407       .  A
C1711      O1716   1.367       .  S
C1712      C1713   1.410       .  A
C1713      C1714   1.396       .  A
C1713      H1717   1.083       .  S
C1714      O1718   1.372       .  S
O1716      H1720   0.992       .  S
O1718      H1719   0.992       .  S
C1721      C1722   1.400       .  A
C1721      C1726   1.404       .  A
C1722      C1723   1.391       .  A
C1722      H1727   1.084       .  S
C1723      C1724   1.402       .  A
C1723      O1728   1.361       .  S
C1724      C1725   1.408       .  A
C1725      C1726   1.398       .  A
C1725      H1729   1.083       .  S
C1726      O1730   1.371       .  S
O1728      H1732   0.991       .  S
O1730      H1731   0.992       .  S
C1733      C1738   1.407   1_554  A
C1734      C1735   1.403       .  A
C1734      H1739   1.084       .  S
C1735      O1740   1.371       .  S
C1736      C1737   1.405   1_554  A
C1737      C1738   1.397       .  A
C1737      H1741   1.083       .  S
C1738      O1742   1.372       .  S
O1740      H1744   0.992       .  S
O1742      H1743   0.992       .  S
C1745      C1746   1.411       .  A
C1745      C1750   1.409       .  A
C1746      C1747   1.415       .  A
C1746      H1751   1.083       .  S
C1747      C1748   1.413       .  A
C1747      O1752   1.371       .  S
C1748      C1749   1.409       .  A
C1749      C1750   1.398       .  A
C1749      H1753   1.084       .  S
C1750      O1754   1.372       .  S
O1752      H1756   0.992       .  S
O1754      H1755   0.992       .  S
C1757      C1758   1.409       .  A
C1757      C1762   1.413       .  A
C1758      C1759   1.392       .  A
C1758      H1763   1.083       .  S
C1759      C1760   1.406       .  A
C1759      O1764   1.371       .  S
C1760      C1761   1.412       .  A
C1761      C1762   1.416       .  A
C1761      H1765   1.083       .  S
C1762      O1766   1.373       .  S
O1764      H1768   0.992       .  S
O1766      H1767   0.992       .  S
C1769      C1770   1.403       .  A
C1769      C1774   1.408       .  A
C1770      C1771   1.401       .  A
C1771      C1772   1.413       .  A
C1771      O1776   1.371       .  S
C1772      C1773   1.405       .  A
C1773      C1774   1.398       .  A
C1773      H1777   1.083       .  S
C1774      O1778   1.369       .  S
O1776      H1780   0.992       .  S
O1778      H1779   0.991       .  S
C1781      C1782   1.400       .  A
C1781      C1786   1.408       .  A
C1782      C1783   1.400       .  A
C1782      H1787   1.084       .  S
C1783      C1784   1.412       .  A
C1783      O1788   1.372       .  S
C1784      C1785   1.406       .  A
C1785      C1786   1.408       .  A
C1785      H1789   1.081       .  S
C1786      O1790   1.371       .  S
O1788      H1792   0.992       .  S
O1790      H1791   0.992   1_565  S
C1793      C1794   1.408       .  A
C1793      C1798   1.419       .  A
C1794      C1795   1.414       .  A
C1794      H1799   1.083       .  S
C1795      C1796   1.415       .  A
C1795      O1800   1.372       .  S
C1796      C1797   1.399       .  A
C1797      C1798   1.394       .  A
C1797      H1801   1.084       .  S
C1798      O1802   1.373       .  S
O1800      H1804   0.992       .  S
O1802      H1803   0.992       .  S
C1805      C1806   1.403       .  A
C1805      C1810   1.408       .  A
C1806      C1807   1.401       .  A
C1806      H1811   1.084       .  S
C1807      C1808   1.414       .  A
C1807      O1812   1.371       .  S
C1808      C1809   1.407       .  A
C1809      C1810   1.402       .  A
C1809      H1813   1.083       .  S
C1810      O1814   1.372       .  S
O1812      H1816   0.992       .  S
