geometry optimzed in LAMMPS
_audit_creation_date              2020-11-30 
_audit_creation_method            'lammps2cif' 
_symmetry_space_group_name_H-M    'P1' 
_symmetry_Int_Tables_number       1 
_symmetry_cell_setting            triclinic 
loop_ 
_symmetry_equiv_pos_as_xyz 
  x,y,z 
_cell_length_a                    48.25721154 
_cell_length_b                    24.911232941674594 
_cell_length_c                    25.64697494808588 
_cell_angle_alpha                 90.5199039508993 
_cell_angle_beta                  89.627219409352 
_cell_angle_gamma                 89.46688884912206 
loop_ 
_atom_site_label 
_atom_site_type_symbol 
_atom_site_fract_x 
_atom_site_fract_y 
_atom_site_fract_z 
_atom_site_charge 
N1          N  0.16132686  0.42906777  0.05119783    -0.07600
N2          N  0.18384053  0.40366949  0.06837024    -0.59700
N3          N  0.13753850  0.39172418  0.93918279    -0.07300
N4          N  0.14253884  0.34875360  0.91070579    -0.61800
N5          N  0.15792549  0.42634179  0.93531956    -0.06900
N6          N  0.17793746  0.40532123  0.90539973    -0.59700
N7          N  0.13973662  0.39771153  0.05790448    -0.06500
N8          N  0.14670540  0.35390392  0.08257475    -0.62200
C9          C  0.17408976  0.35723458  0.08907676     0.94600
C10         C  0.16741412  0.35747722  0.88909150     0.94400
N11         N  0.05394117  0.42135503  0.94194770    -0.07800
N12         N  0.04293549  0.42314189  0.89487430    -0.60300
N13         N  0.07713853  0.39301207  0.06606486    -0.05900
N14         N  0.08192589  0.37331552  0.11288198    -0.61500
N15         N  0.05631028  0.42722519  0.06756872    -0.07800
N16         N  0.04658285  0.43147269  0.11596822    -0.60500
N17         N  0.07495405  0.38755072  0.94177288    -0.05500
N18         N  0.07868772  0.36616290  0.89479678    -0.61600
Mn19       Mn  0.10680247  0.39184380  0.00143423     1.18400
C20         C  0.05830666  0.38801820  0.86604679     0.96700
C21         C  0.06254371  0.39698476  0.14359873     0.97300
N22         N  0.15449868  0.56092983  0.93357671    -0.07800
N23         N  0.17471301  0.58741141  0.90975463    -0.64100
N24         N  0.13368528  0.59294058  0.05290987    -0.06600
N25         N  0.13825247  0.63946074  0.07530286    -0.64800
N26         N  0.15691603  0.56470299  0.04842539    -0.07300
N27         N  0.17790873  0.59478321  0.06446040    -0.64400
N28         N  0.13169793  0.59067277  0.93375046    -0.06200
N29         N  0.13561566  0.63524764  0.90802250    -0.65100
Mn30       Mn  0.15873392  0.49524123  0.99199680     1.10700
C31         C  0.16233429  0.63349458  0.89329761     0.97900
C32         C  0.16573245  0.64132401  0.08144146     0.98000
N33         N  0.05149237  0.54918253  0.06177135    -0.07300
N34         N  0.04058127  0.54747148  0.10899911    -0.62700
N35         N  0.06767977  0.58211739  0.93677739    -0.06600
N36         N  0.06768814  0.60430211  0.89019111    -0.59400
N37         N  0.04920580  0.54389083  0.93898032    -0.08000
N38         N  0.03642015  0.53935415  0.89367052    -0.62300
N39         N  0.07030460  0.58672950  0.05969102    -0.06900
N40         N  0.07259559  0.61113127  0.10544347    -0.59500
Mn41       Mn  0.05123417  0.48492615  0.00264123     1.20200
Mn42       Mn  0.10039691  0.58866760  0.99575389     1.10100
Cl43       Cl  0.10483643  0.49044920  0.99772176    -0.87400
C44         C  0.05370473  0.58661396  0.13588788     0.94900
C45         C  0.04798092  0.57753865  0.86341159     0.94700
N46         N  0.44412382  0.41604068  0.05234502    -0.07600
N47         N  0.45314799  0.42055669  0.10086815    -0.59700
N48         N  0.42324313  0.38205687  0.92713133    -0.07300
N49         N  0.41955516  0.35984021  0.88078272    -0.61800
N50         N  0.44330238  0.41714786  0.92583833    -0.06900
N51         N  0.45353401  0.41959309  0.87777426    -0.59700
N52         N  0.42462741  0.37968835  0.05035776    -0.06500
N53         N  0.42043915  0.35851004  0.09684787    -0.62200
C54         C  0.43848032  0.38390219  0.12805377     0.94600
C55         C  0.43886744  0.38276187  0.85035727     0.94400
N56         N  0.33835314  0.41977815  0.93857251    -0.07800
N57         N  0.31642559  0.39655737  0.91714284    -0.60300
N58         N  0.36261658  0.38409678  0.05185032    -0.05900
N59         N  0.35958071  0.34289522  0.08252176    -0.61500
N60         N  0.34156601  0.41790261  0.05617559    -0.07800
N61         N  0.32297212  0.39765437  0.08897467    -0.60500
N62         N  0.36001726  0.38749244  0.93291843    -0.05500
N63         N  0.35362299  0.34477905  0.90544314    -0.61600
Mn64       Mn  0.39305998  0.38268297  0.99007345     1.18400
C65         C  0.32649643  0.35009062  0.89548740     0.96700
C66         C  0.33518390  0.35139293  0.10622608     0.97300
N67         N  0.44475208  0.53984699  0.92959993    -0.07800
N68         N  0.45410773  0.53550596  0.88119313    -0.64100
N69         N  0.42816009  0.57650210  0.05567058    -0.06600
N70         N  0.42773428  0.59976104  0.10222424    -0.64800
N71         N  0.44736423  0.53894853  0.05344402    -0.07300
N72         N  0.46031716  0.53614302  0.09867363    -0.64400
N73         N  0.42560229  0.57750700  0.93236525    -0.06200
N74         N  0.42167139  0.59927612  0.88615945    -0.65100
Mn75       Mn  0.44650017  0.47770904  0.99026537     1.10700
C76         C  0.43968994  0.57307046  0.85439563     0.97900
C77         C  0.44805178  0.57450648  0.12898214     0.98000
N78         N  0.34181447  0.55316767  0.05757756    -0.07300
N79         N  0.32073616  0.57935803  0.08018869    -0.62700
N80         N  0.36269086  0.58352012  0.93903080    -0.06600
N81         N  0.35769220  0.62960642  0.91677758    -0.59400
N82         N  0.33986915  0.55492483  0.94269046    -0.08000
N83         N  0.31858774  0.58435600  0.92585162    -0.62300
N84         N  0.36386839  0.58423923  0.05768720    -0.06900
N85         N  0.35850536  0.62976700  0.08219749    -0.59500
Mn86       Mn  0.33922332  0.48610271  0.99898691     1.20200
Mn87       Mn  0.39563860  0.58084316  0.99641980     1.10100
Cl88       Cl  0.39305894  0.48206035  0.99411617    -0.87400
C89         C  0.33179572  0.62654020  0.09662426     0.94900
C90         C  0.33027540  0.63085404  0.90918239     0.94700
N91         N  0.21552113  0.05182889  0.30623891    -0.07600
N92         N  0.20348267  0.07950686  0.34493772    -0.59700
N93         N  0.19721623  0.93435976  0.26187552    -0.07300
N94         N  0.17337668  0.91130839  0.27125447    -0.61800
N95         N  0.21358942  0.93174747  0.30291193    -0.06900
N96         N  0.20020452  0.90737870  0.34143963    -0.59700
N97         N  0.19980151  0.05485971  0.26441342    -0.06500
N98         N  0.17808879  0.08570979  0.27285483    -0.62200
C99         C  0.18052047  0.10145807  0.32257733     0.94600
C100        C  0.17524422  0.89427812  0.32049943     0.94400
N101        N  0.22048524  0.93392139  0.10445202    -0.07800
N102        N  0.22161205  0.88694029  0.08019539    -0.60300
N103        N  0.20246752  0.06001640  0.14554076    -0.05900
N104        N  0.18977691  0.10712616  0.14883121    -0.61500
N105        N  0.22128428  0.05993078  0.10842135    -0.07800
N106        N  0.22150279  0.10702419  0.08503629    -0.60500
N107        N  0.20158720  0.93350554  0.14153130    -0.05500
N108        N  0.18954271  0.88624070  0.14347473    -0.61600
Mn109      Mn  0.19994838  0.99558984  0.20238563     1.18400
C110        C  0.20218990  0.85791339  0.10496254     0.96700
C111        C  0.20154282  0.13580985  0.11043631     0.97300
N112        N  0.28422995  0.92714755  0.30572961    -0.07800
N113        N  0.29819559  0.90473871  0.34484737    -0.64100
N114        N  0.30214954  0.04577661  0.26938120    -0.06600
N115        N  0.32504374  0.07099771  0.28055471    -0.64800
N116        N  0.28495859  0.04593124  0.30961040    -0.07300
N117        N  0.29688860  0.07015560  0.34997172    -0.64400
N118        N  0.29988525  0.92493232  0.26334930    -0.06200
N119        N  0.32299287  0.89888211  0.27183342    -0.65100
Mn120      Mn  0.24946428  0.98891328  0.30843392     1.10700
C121        C  0.32239088  0.88675569  0.32240172     0.97900
C122        C  0.32165779  0.08628069  0.33024165     0.98000
N123        N  0.28485940  0.05775295  0.11357656    -0.07300
N124        N  0.28391737  0.10811730  0.09728406    -0.62700
N125        N  0.30136127  0.92685876  0.14535404    -0.06600
N126        N  0.31211837  0.87845749  0.15075170    -0.59400
N127        N  0.28321345  0.92746856  0.10762638    -0.08000
N128        N  0.28121656  0.87847782  0.08698170    -0.62300
N129        N  0.30308207  0.05340862  0.15102418    -0.06900
N130        N  0.31496430  0.09995414  0.16042603    -0.59500
Mn131      Mn  0.25267015  0.99504755  0.10552344     1.20200
Mn132      Mn  0.30169423  0.98782027  0.20618026     1.10100
Cl133      Cl  0.25079464  0.99180262  0.20681257    -0.87400
C134        C  0.30297371  0.13411940  0.12673056     0.94900
C135        C  0.29960451  0.84817655  0.11419661     0.94700
N136        N  0.21525570  0.06087916  0.87565322    -0.07600
N137        N  0.21750312  0.11081095  0.89352036    -0.59700
N138        N  0.19492345  0.93351510  0.83986861    -0.07300
N139        N  0.18217011  0.88742806  0.83385419    -0.61800
N140        N  0.21222253  0.93122530  0.87896988    -0.06900
N141        N  0.21153274  0.88265044  0.90002813    -0.59700
N142        N  0.19778231  0.05987296  0.83675545    -0.06500
N143        N  0.18777266  0.10827485  0.82776553    -0.62200
C144        C  0.20008983  0.14008159  0.86329839     0.94600
C145        C  0.19224777  0.85582341  0.87173099     0.94400
N146        N  0.21553932  0.92842871  0.68195864    -0.07800
N147        N  0.20442728  0.90127796  0.64254600    -0.60300
N148        N  0.19994329  0.05333281  0.71836712    -0.05900
N149        N  0.17658508  0.07673625  0.70554087    -0.61500
N150        N  0.21629919  0.04670077  0.67725284    -0.07800
N151        N  0.20268217  0.06288040  0.63500335    -0.60500
N152        N  0.19739150  0.93221322  0.72061128    -0.05500
N153        N  0.17457325  0.90663542  0.70932326    -0.61600
Mn154      Mn  0.19738859  0.99480014  0.78006708     1.18400
C155        C  0.17908305  0.88726626  0.66119362     0.96700
C156        C  0.17789019  0.08169948  0.65381864     0.97300
N157        N  0.27501613  0.92623006  0.88566923    -0.07800
N158        N  0.27256259  0.87920427  0.90888317    -0.64100
N159        N  0.29730736  0.05118418  0.84693181    -0.06600
N160        N  0.30976666  0.09792519  0.84217228    -0.64800
N161        N  0.27815536  0.05365374  0.88344412    -0.07300
N162        N  0.27751765  0.10221477  0.90480444    -0.64400
N163        N  0.29488754  0.92408997  0.85050805    -0.06200
N164        N  0.30647963  0.87593049  0.84915394    -0.65100
Mn165      Mn  0.24499785  0.99303258  0.88404778     1.10700
C166        C  0.29237698  0.84844640  0.88558160     0.97900
C167        C  0.29750417  0.12920617  0.87893849     0.98000
N168        N  0.28639582  0.04320460  0.68589769    -0.07300
N169        N  0.29933203  0.06935104  0.64801922    -0.62700
N170        N  0.30030853  0.92259975  0.73141501    -0.06600
N171        N  0.32284918  0.89349765  0.72486063    -0.59400
N172        N  0.28529497  0.92334552  0.68856894    -0.08000
N173        N  0.29866135  0.89584073  0.65125752    -0.62300
N174        N  0.30205384  0.04314571  0.72794362    -0.06900
N175        N  0.32484674  0.07015892  0.72030186    -0.59500
Mn176      Mn  0.25106494  0.98533222  0.68130611     1.20200
Mn177      Mn  0.29898786  0.98527214  0.79026811     1.10100
Cl178      Cl  0.24822078  0.98946602  0.78275763    -0.87400
C179        C  0.32308529  0.08658669  0.67087414     0.94900
C180        C  0.32172863  0.87636640  0.67533247     0.94700
N181        N  0.03734928  0.19104886  0.43591676    -0.07600
N182        N  0.05021294  0.15277554  0.40809794    -0.59700
N183        N  0.05083559  0.22638304  0.55739787    -0.07300
N184        N  0.07466510  0.21262817  0.57801267    -0.61800
N185        N  0.03495117  0.18388097  0.55070429    -0.06900
N186        N  0.04905632  0.14021558  0.56494746    -0.59700
N187        N  0.05387019  0.23272923  0.44041822    -0.06500
N188        N  0.07697265  0.22502160  0.41444687    -0.62200
C189        C  0.07475217  0.17561732  0.39432181     0.96400
C190        C  0.07377633  0.15920924  0.58205775     0.94400
N191        N  0.03037510  0.38936522  0.56584836    -0.07800
N192        N  0.02886553  0.41200903  0.61288179    -0.60300
N193        N  0.05413870  0.35426075  0.44379689    -0.05900
N194        N  0.06852222  0.35002037  0.39989516    -0.61500
N195        N  0.03527764  0.39232881  0.44078926    -0.07800
N196        N  0.03655456  0.41443520  0.39405718    -0.60500
N197        N  0.04906579  0.35072598  0.56585284    -0.05500
N198        N  0.06071852  0.34651514  0.61208361    -0.61600
Mn199      Mn  0.05191287  0.29202636  0.50238898     1.18400
C200        C  0.04840365  0.38553662  0.64096010     0.96700
C201        C  0.05789781  0.38857145  0.36930924     0.97300
N202        N  0.46190125  0.18349340  0.55070773    -0.07800
N203        N  0.45056529  0.14480860  0.57896140    -0.64100
N204        N  0.44765067  0.22378849  0.43138368    -0.06600
N205        N  0.42547028  0.21395806  0.40440469    -0.64800
N206        N  0.46368531  0.18086521  0.43438631    -0.07300
N207        N  0.45108620  0.13977432  0.41103067    -0.64400
N208        N  0.44454997  0.22468440  0.54887773    -0.06200
N209        N  0.42227743  0.21613964  0.57681302    -0.65100
Mn210      Mn  0.49765101  0.18130442  0.49402705     1.10700
C211        C  0.42615238  0.16699012  0.59595268     0.97900
C212        C  0.42733700  0.16199916  0.39170216     0.98000
N213        N  0.46291075  0.38456291  0.42825713    -0.07300
N214        N  0.46356188  0.40669986  0.38133525    -0.62700
N215        N  0.44144185  0.34686809  0.54993888    -0.06600
N216        N  0.42776586  0.34198699  0.59435619    -0.59400
N217        N  0.45946025  0.38582396  0.55269313    -0.08000
N218        N  0.45838544  0.40789356  0.59971826    -0.62300
N219        N  0.44492987  0.34542861  0.42858533    -0.06900
N220        N  0.43297282  0.34018472  0.38276985    -0.59500
Mn221      Mn  0.49326899  0.38965633  0.49356192     1.20200
Mn222      Mn  0.44459064  0.28573254  0.48969421     1.10100
Cl223      Cl  0.49557505  0.28639986  0.49444490    -0.87400
C224        C  0.44440632  0.37892589  0.35361397     0.94900
C225        C  0.43809021  0.38099597  0.62504338     0.94700
N226        N  0.02649571  0.59216738  0.43612314    -0.07600
N227        N  0.02501336  0.57084531  0.38891951    -0.59700
N228        N  0.04489163  0.62675569  0.56055355    -0.07300
N229        N  0.05669122  0.62960895  0.60681286    -0.61800
N230        N  0.02512850  0.59095643  0.56052296    -0.06900
N231        N  0.02322473  0.56890804  0.60734872    -0.59700
N232        N  0.04599734  0.62839804  0.43741852    -0.06500
N233        N  0.05814551  0.63234609  0.39137554    -0.62200
C234        C  0.04507495  0.59580217  0.36143691     0.94600
C235        C  0.04321670  0.59327700  0.63601609     0.94400
N236        N  0.03506322  0.79417458  0.55893496    -0.07800
N237        N  0.05013715  0.83344658  0.57973679    -0.60300
N238        N  0.05052689  0.75155124  0.44269162    -0.05900
N239        N  0.07412256  0.76005167  0.41867542    -0.61500
N240        N  0.03490759  0.79545573  0.44355647    -0.07800
N241        N  0.04872306  0.83507635  0.42091988    -0.60500
N242        N  0.04978799  0.74922025  0.55950206    -0.05500
N243        N  0.07369396  0.75645160  0.58213713    -0.61600
Mn244      Mn  0.04786296  0.68783853  0.49992916     1.18400
C245        C  0.07408720  0.80858167  0.59469846     0.96700
C246        C  0.07308412  0.81180982  0.40503680     0.97300
N247        N  0.47143429  0.58666425  0.55592291    -0.07800
N248        N  0.47167996  0.56245989  0.60160003    -0.64100
N249        N  0.45310530  0.62424000  0.43273149    -0.06600
N250        N  0.44089725  0.62782158  0.38695452    -0.64800
N251        N  0.47276946  0.58749978  0.43151236    -0.07300
N252        N  0.47419711  0.56551713  0.38421245    -0.64400
N253        N  0.45201835  0.62372283  0.55550835    -0.06200
N254        N  0.43862859  0.62538090  0.60055131    -0.65100
Mn255      Mn  0.50405177  0.58679987  0.49552677     1.10700
C256        C  0.45086372  0.58656683  0.62906069     0.97900
C257        C  0.45395798  0.59084620  0.35668942     0.98000
N258        N  0.46508443  0.78996811  0.43711387    -0.07300
N259        N  0.45160938  0.83046040  0.41480568    -0.62700
N260        N  0.44900700  0.74710203  0.55389986    -0.06600
N261        N  0.42625936  0.75512959  0.58108327    -0.59400
N262        N  0.46448894  0.79057897  0.55325106    -0.08000
N263        N  0.45130726  0.82989786  0.57909670    -0.62300
N264        N  0.44886047  0.74746089  0.43746397    -0.06900
N265        N  0.42507757  0.75779810  0.41503189    -0.59500
Mn266      Mn  0.49991507  0.79489405  0.49524131     1.20200
Mn267      Mn  0.45066823  0.68461418  0.49494616     1.10100
Cl268      Cl  0.50188573  0.69065211  0.49540277    -0.87400
C269        C  0.42687088  0.80905945  0.40067163     0.94900
C270        C  0.42772080  0.80628409  0.59692078     0.94700
C271        C  0.35947442  0.88205391  0.60841301    -0.10600
C272        C  0.34724079  0.85484164  0.65034937     0.05600
C273        C  0.36301572  0.81575012  0.67665743    -0.04400
C274        C  0.39032440  0.80487491  0.66147637    -0.08800
C275        C  0.40277060  0.83203602  0.61991244     0.04700
C276        C  0.38697672  0.87068890  0.59284479    -0.03900
Br277      Br  0.40137896  0.90659636  0.53282148    -0.03600
H278        H  0.34789863  0.91313029  0.58862683     0.08600
H279        H  0.40162899  0.77314206  0.68100579     0.06600
Br280      Br  0.34787860  0.77453373  0.73291287    -0.04000
C281        C  0.11928386  0.79887006  0.63735254    -0.10600
C282        C  0.10086832  0.83276078  0.61041239     0.05600
C283        C  0.11093046  0.88225246  0.59203017    -0.04400
C284        C  0.13824944  0.89770012  0.60373918    -0.08800
C285        C  0.15600160  0.86384588  0.63221999     0.04700
C286        C  0.14636043  0.81378822  0.64807246    -0.03900
Br287      Br  0.16933677  0.76519343  0.68676510    -0.03600
H288        H  0.11276945  0.75969903  0.64985482     0.08600
H289        H  0.14524177  0.93721054  0.59259717     0.06600
Br290      Br  0.08912137  0.92900568  0.54937671    -0.04000
C291        C  0.36182515  0.14862109  0.67507755    -0.10600
C292        C  0.34765774  0.10997715  0.64578118     0.05600
C293        C  0.36094496  0.08638449  0.60196347    -0.04400
C294        C  0.38820497  0.10107836  0.58908833    -0.08800
C295        C  0.40232387  0.13955318  0.61900478     0.04700
C296        C  0.38856737  0.16400700  0.66169143    -0.03900
Br297      Br  0.40495640  0.22045492  0.70213174    -0.03600
H298        H  0.35209095  0.16650862  0.70936394     0.08600
H299        H  0.39785845  0.08444555  0.55418549     0.06600
Br300      Br  0.34311185  0.03384520  0.55903901    -0.04000
C301        C  0.15059407  0.12551345  0.58293913    -0.10600
C302        C  0.15177800  0.08938522  0.62418095     0.05600
C303        C  0.12654310  0.06718388  0.64288567    -0.04400
C304        C  0.10093528  0.08686425  0.62555498    -0.08800
C305        C  0.09980356  0.12776950  0.58886909     0.04700
C306        C  0.12490831  0.14428893  0.56481789    -0.03900
Br307      Br  0.12555870  0.19335901  0.50754185    -0.03600
H308        H  0.16956349  0.14168668  0.56694788     0.08600
H309        H  0.08197210  0.07250518  0.64319576     0.06600
Br310      Br  0.12533960  0.01079234  0.69354803    -0.04000
C311        C  0.37369153  0.87841569  0.31830577    -0.10600
C312        C  0.34908728  0.87216845  0.34818039     0.05600
C313        C  0.35148490  0.85165186  0.39890366    -0.04400
C314        C  0.37758366  0.83442019  0.41672908    -0.08800
C315        C  0.40167672  0.83883888  0.38552142     0.04700
C316        C  0.39957913  0.86205634  0.33641905    -0.03900
Br317      Br  0.43095425  0.86687175  0.29041229    -0.03600
H318        H  0.37300429  0.89500302  0.27947198     0.08600
H319        H  0.37895637  0.81571828  0.45461860     0.06600
Br320      Br  0.32010389  0.84353412  0.44422717    -0.04000
C321        C  0.12449052  0.81670018  0.40390334    -0.10600
C322        C  0.09886367  0.83948306  0.38865953     0.05600
C323        C  0.09914022  0.88434212  0.35589714    -0.04400
C324        C  0.12449388  0.90294898  0.33638103    -0.08800
C325        C  0.14995373  0.87808521  0.34934451     0.04700
C326        C  0.14979236  0.83555129  0.38471928    -0.03900
Br327      Br  0.18310963  0.79849296  0.40413035    -0.03600
H328        H  0.12492942  0.78269731  0.42992285     0.08600
H329        H  0.12421613  0.93630714  0.30956444     0.06600
Br330      Br  0.06572140  0.91897737  0.33327943    -0.04000
C331        C  0.36395629  0.07184143  0.38278564    -0.10600
C332        C  0.34548067  0.10767625  0.35831937     0.05600
C333        C  0.35519947  0.15758857  0.34227180    -0.04400
C334        C  0.38298313  0.17008975  0.34771821    -0.08800
C335        C  0.40162609  0.13575119  0.37363190     0.04700
C336        C  0.39174400  0.08608821  0.39194395    -0.03900
Br337      Br  0.41460248  0.03705001  0.43006040    -0.03600
H338        H  0.35701367  0.03205595  0.39310602     0.08600
H339        H  0.38971912  0.20888527  0.33390153     0.06600
Br340      Br  0.33103415  0.21000764  0.31157677    -0.04000
C341        C  0.14011022  0.09093171  0.38179950    -0.10600
C342        C  0.15592529  0.12401509  0.34915134     0.05600
C343        C  0.14353493  0.17038994  0.32851047    -0.04400
C344        C  0.11585694  0.18246820  0.33941469    -0.08800
C345        C  0.09986582  0.14990416  0.37210556     0.04700
C346        C  0.11234991  0.10391752  0.39401153    -0.03900
Br347      Br  0.09320769  0.05960236  0.44295538    -0.03600
H348        H  0.14906308  0.05400656  0.39639400     0.08600
H349        H  0.10705781  0.21926228  0.32409796     0.06600
Br350      Br  0.16384698  0.21909497  0.28539598    -0.04000
C351        C  0.29817860  0.69889716  0.07287813    -0.10600
C352        C  0.31631212  0.67653164  0.10972846     0.05600
C353        C  0.32587593  0.70946440  0.15040259    -0.04400
C354        C  0.31929302  0.76422391  0.15150532    -0.08800
C355        C  0.30303623  0.78819354  0.11238824     0.04700
C356        C  0.29121538  0.75404734  0.07420148    -0.03900
Br357      Br  0.26642634  0.77972564  0.02174439    -0.03600
H358        H  0.29094996  0.67427969  0.04077575     0.08600
H359        H  0.32784536  0.78840787  0.18267764     0.06600
Br360      Br  0.34967916  0.68178700  0.20373522    -0.04000
C361        C  0.29732631  0.28625121  0.10403935    -0.10600
C362        C  0.32128249  0.30432341  0.12852539     0.05600
C363        C  0.33699964  0.26739558  0.15794380    -0.04400
C364        C  0.33012721  0.21288199  0.15802519    -0.08800
C365        C  0.30769940  0.19349854  0.12884173     0.04700
C366        C  0.29064481  0.23165445  0.10370513    -0.03900
Br367      Br  0.25907181  0.21289107  0.06483168    -0.03600
H368        H  0.28531973  0.31366280  0.08037952     0.08600
H369        H  0.34329416  0.18528836  0.17916243     0.06600
Br370      Br  0.36990769  0.28861157  0.19426510    -0.04000
C371        C  0.33009709  0.72677830  0.93333076    -0.10600
C372        C  0.31642006  0.68434432  0.90766831     0.05600
C373        C  0.29237959  0.69608944  0.87899843    -0.04400
C374        C  0.28346010  0.74994580  0.87423106    -0.08800
C375        C  0.29844229  0.79199105  0.89766329     0.04700
C376        C  0.32163163  0.77984613  0.92784558    -0.03900
Br377      Br  0.34315943  0.83492868  0.96072075    -0.03600
H378        H  0.34827434  0.71903288  0.95676219     0.08600
H379        H  0.26562538  0.75919014  0.85039003     0.06600
Br380      Br  0.27279483  0.64091067  0.84258145    -0.04000
C381        C  0.31244843  0.26644106  0.93594507    -0.10600
C382        C  0.31076095  0.29967709  0.89197752     0.05600
C383        C  0.30348276  0.27659523  0.84371825    -0.04400
C384        C  0.29861502  0.22105688  0.84002472    -0.08800
C385        C  0.30184659  0.18775186  0.88369983     0.04700
C386        C  0.30906568  0.21095269  0.93167319    -0.03900
Br387      Br  0.31841871  0.16744492  0.99025408    -0.03600
H388        H  0.31941395  0.28300199  0.97280508     0.08600
H389        H  0.29307667  0.20361444  0.80271583     0.06600
Br390      Br  0.30189229  0.31875667  0.78167128    -0.04000
C391        C  0.43047174  0.61984902  0.71338156    -0.10600
C392        C  0.44575913  0.57999616  0.68602904     0.05600
C393        C  0.45666010  0.53668542  0.71460699    -0.04400
C394        C  0.45214504  0.53400642  0.76821907    -0.08800
C395        C  0.43969144  0.57624142  0.79634185     0.04700
C396        C  0.42763198  0.61877700  0.76793895    -0.03900
Br397      Br  0.40721348  0.67680091  0.80018270    -0.03600
H398        H  0.42148975  0.65333726  0.69256346     0.08600
H399        H  0.45922287  0.49860438  0.78843881     0.06600
Br400      Br  0.47944055  0.48092824  0.68529707    -0.04000
C401        C  0.43666056  0.62108985  0.21345017    -0.10600
C402        C  0.45111260  0.57961017  0.18702581     0.05600
C403        C  0.46524290  0.54113906  0.21753739    -0.04400
C404        C  0.46381308  0.54391703  0.27216557    -0.08800
C405        C  0.45069417  0.58659737  0.29857797     0.04700
C406        C  0.43645727  0.62527947  0.26816918    -0.03900
Br407      Br  0.41575478  0.68474444  0.29725808    -0.03600
H408        H  0.42520017  0.65067393  0.19137740     0.08600
H409        H  0.47275799  0.51178011  0.29451954     0.06600
Br410      Br  0.48640455  0.48262336  0.18839229    -0.04000
C411        C  0.41946682  0.41522057  0.71059191    -0.10600
C412        C  0.43617513  0.37861349  0.68253689     0.05600
C413        C  0.45169233  0.33998731  0.70998158    -0.04400
C414        C  0.45244186  0.34170616  0.76462824    -0.08800
C415        C  0.43740214  0.38083332  0.79270236     0.04700
C416        C  0.41947429  0.41557565  0.76538242    -0.03900
Br417      Br  0.39389207  0.46249742  0.80151575    -0.03600
H418        H  0.40655180  0.44364852  0.68994446     0.08600
H419        H  0.46441102  0.31189740  0.78521034     0.06600
Br420      Br  0.47158982  0.28343509  0.67405276    -0.04000
C421        C  0.42921189  0.42328811  0.27116224    -0.10600
C422        C  0.44182147  0.37955078  0.29599977     0.05600
C423        C  0.44964309  0.33423092  0.26554022    -0.04400
C424        C  0.44724007  0.33539459  0.21112042    -0.08800
C425        C  0.43730871  0.38120280  0.18592278     0.04700
C426        C  0.42604414  0.42343822  0.21665064    -0.03900
Br427      Br  0.40350962  0.47849343  0.18622584    -0.03600
H428        H  0.42104910  0.45652560  0.29425174     0.08600
H429        H  0.45380066  0.30073233  0.18827123     0.06600
Br430      Br  0.46436044  0.26989224  0.29590292    -0.04000
C431        C  0.16040194  0.71827113  0.84636189    -0.10600
C432        C  0.17593645  0.68449299  0.87862063     0.05600
C433        C  0.19781311  0.70715417  0.90765969    -0.04400
C434        C  0.20323179  0.76261563  0.90441282    -0.08800
C435        C  0.18644464  0.79691047  0.87429459     0.04700
C436        C  0.16459220  0.77362191  0.84539128    -0.03900
Br437      Br  0.13669795  0.81432334  0.80926102    -0.03600
H438        H  0.14282354  0.70209059  0.82550748     0.08600
H439        H  0.21997495  0.77924110  0.92716370     0.06600
Br440      Br  0.21848469  0.66623958  0.95737801    -0.04000
C441        C  0.17698428  0.22238404  0.82936905    -0.10600
C442        C  0.19666245  0.19990231  0.86325497     0.05600
C443        C  0.21163100  0.23531334  0.89570136    -0.04400
C444        C  0.20480604  0.29019620  0.89793162    -0.08800
C445        C  0.18305520  0.31096624  0.86815403     0.04700
C446        C  0.17005004  0.27696271  0.83184837    -0.03900
Br447      Br  0.14021647  0.30217506  0.78905345    -0.03600
H448        H  0.16565811  0.19703169  0.80259554     0.08600
H449        H  0.21466310  0.31549869  0.92684151     0.06600
Br450      Br  0.24021674  0.21173734  0.94049204    -0.04000
C451        C  0.19993380  0.70659734  0.11824914    -0.10600
C452        C  0.17919617  0.69446443  0.08201520     0.05600
C453        C  0.16864344  0.73624537  0.05008448    -0.04400
C454        C  0.17786828  0.78852533  0.05636816    -0.08800
C455        C  0.19698316  0.80107415  0.09466461     0.04700
C456        C  0.20863347  0.75991449  0.12517104    -0.03900
Br457      Br  0.23535480  0.77557065  0.17805785    -0.03600
H458        H  0.20815686  0.67541206  0.14307721     0.08600
H459        H  0.16901747  0.82018327  0.03278354     0.06600
Br460      Br  0.14043123  0.72695243  0.99833070    -0.04000
C461        C  0.20257402  0.22978203  0.14484430    -0.10600
C462        C  0.19682834  0.19392407  0.10364893     0.05600
C463        C  0.18771504  0.21430732  0.05588322    -0.04400
C464        C  0.18481040  0.26977227  0.04951342    -0.08800
C465        C  0.18939539  0.30582372  0.09122744     0.04700
C466        C  0.19864817  0.28536897  0.13898929    -0.03900
Br467      Br  0.20395649  0.33178600  0.19795440    -0.03600
H468        H  0.20973757  0.21442749  0.18181998     0.08600
H469        H  0.17615918  0.28449662  0.01337679     0.06600
Br470      Br  0.17520979  0.16735930  0.00134751    -0.04000
C471        C  0.03474599  0.54442922  0.71940380    -0.10600
C472        C  0.04576589  0.58916678  0.69422132     0.05600
C473        C  0.05733525  0.63002977  0.72595434    -0.04400
C474        C  0.05709208  0.62559633  0.78041782    -0.08800
C475        C  0.04490121  0.58182832  0.80554186     0.04700
C476        C  0.03288499  0.54152627  0.77400656    -0.03900
Br477      Br  0.01298714  0.48210892  0.80185604    -0.03600
H478        H  0.02778871  0.51088685  0.69612230     0.08600
H479        H  0.06657411  0.65713166  0.80341805     0.06600
Br480      Br  0.07394681  0.69360047  0.69935629    -0.04000
C481        C  0.04413477  0.54569648  0.22126931    -0.10600
C482        C  0.05277080  0.59078781  0.19363679     0.05600
C483        C  0.06031058  0.63711564  0.22204041    -0.04400
C484        C  0.05882894  0.63704244  0.27677403    -0.08800
C485        C  0.04824899  0.59266701  0.30391120     0.04700
C486        C  0.03985898  0.54753540  0.27496475    -0.03900
Br487      Br  0.02039582  0.48866586  0.30456393    -0.03600
H488        H  0.03971318  0.50878886  0.20064545     0.08600
H489        H  0.06475726  0.67289792  0.29797676     0.06600
Br490      Br  0.07122918  0.70234988  0.18882661    -0.04000
C491        C  0.03543127  0.35237050  0.72893825    -0.10600
C492        C  0.05098433  0.38798422  0.69855822     0.05600
C493        C  0.07065720  0.42074295  0.72335969    -0.04400
C494        C  0.07365973  0.41904618  0.77790664    -0.08800
C495        C  0.05731428  0.38460441  0.80833316     0.04700
C496        C  0.03854182  0.35046740  0.78328724    -0.03900
Br497      Br  0.01731498  0.30021416  0.82257780    -0.03600
H498        H  0.02105655  0.32547659  0.71018460     0.08600
H499        H  0.08824486  0.44561083  0.79673304     0.06600
Br500      Br  0.09363411  0.46827651  0.68405972    -0.04000
C501        C  0.04715125  0.35112950  0.28155607    -0.10600
C502        C  0.06199873  0.38816810  0.31175517     0.05600
C503        C  0.07925890  0.42499987  0.28612151    -0.04400
C504        C  0.07930364  0.42757310  0.23124860    -0.08800
C505        C  0.06259993  0.39315884  0.20132119     0.04700
C506        C  0.04739197  0.35334373  0.22685632    -0.03900
Br507      Br  0.02737941  0.30064278  0.18778867    -0.03600
H508        H  0.03523502  0.32056605  0.30082798     0.08600
H509        H  0.09209758  0.45697333  0.21195114     0.06600
Br510      Br  0.10231672  0.47311051  0.32474244    -0.04000
N511        N  0.66314941  0.43336335  0.05157935    -0.07600
N512        N  0.68409814  0.40724148  0.07365883    -0.59700
N513        N  0.63988110  0.40217744  0.93536631    -0.07300
N514        N  0.64365546  0.35988679  0.90535982    -0.61800
N515        N  0.66182381  0.43334013  0.93472537    -0.06900
N516        N  0.68149084  0.41043181  0.90534208    -0.59700
N517        N  0.64074910  0.40354248  0.05444240    -0.06500
N518        N  0.64556839  0.35985775  0.08102540    -0.62200
C519        C  0.67252913  0.36176977  0.09291888     0.94600
C520        C  0.66933249  0.36528690  0.88609420     0.94400
N521        N  0.55684303  0.44276618  0.93614418    -0.07800
N522        N  0.54461640  0.44589107  0.89017926    -0.60300
N523        N  0.57798711  0.40609481  0.05954457    -0.05900
N524        N  0.58086577  0.38246597  0.10518992    -0.61500
N525        N  0.55829146  0.44271577  0.06161906    -0.07800
N526        N  0.54718221  0.44433223  0.10910329    -0.60500
N527        N  0.57646837  0.40597704  0.93458709    -0.05500
N528        N  0.57794934  0.38348747  0.88755950    -0.61600
Mn529      Mn  0.60830966  0.40357050  0.99590445     1.18400
C530        C  0.55766417  0.40825291  0.86033057     0.96700
C531        C  0.56136486  0.40610986  0.13568978     0.97300
N532        N  0.66362365  0.56707798  0.93600147    -0.07800
N533        N  0.68410626  0.59085723  0.91008862    -0.64100
N534        N  0.64203092  0.59849532  0.05646771    -0.06600
N535        N  0.64734893  0.64320572  0.08160794    -0.64800
N536        N  0.66453635  0.56832964  0.05176356    -0.07300
N537        N  0.68602557  0.59561241  0.07011512    -0.64400
N538        N  0.64146076  0.59831020  0.93577454    -0.06200
N539        N  0.64567020  0.64063328  0.90714574    -0.65100
Mn540      Mn  0.66457298  0.50029391  0.99353290     1.10700
C541        C  0.67219689  0.63667799  0.89148409     0.97900
C542        C  0.67475665  0.64222257  0.08925736     0.98000
N543        N  0.55869658  0.56589897  0.06001910    -0.07300
N544        N  0.54720125  0.56433978  0.10672782    -0.62700
N545        N  0.57824823  0.60018400  0.93658914    -0.06600
N546        N  0.58034667  0.62156842  0.88967478    -0.59400
N547        N  0.55799615  0.56552546  0.93799472    -0.08000
N548        N  0.54592359  0.56310709  0.89215313    -0.62300
N549        N  0.57884147  0.60080902  0.05954992    -0.06900
N550        N  0.58153485  0.62336806  0.10601500    -0.59500
Mn551      Mn  0.55652185  0.50412331  0.99912409     1.20200
Mn552      Mn  0.60983219  0.60020475  0.99713570     1.10100
Cl553      Cl  0.61033625  0.50200694  0.99640363    -0.87400
C554        C  0.56147883  0.60069877  0.13514418     0.94900
C555        C  0.55982427  0.59825526  0.86210196     0.94700
N556        N  0.94310947  0.43702102  0.05509012    -0.07600
N557        N  0.95407344  0.44114405  0.10217946    -0.59700
N558        N  0.92350405  0.39828744  0.93162089    -0.07300
N559        N  0.92121681  0.37268519  0.88654170    -0.61800
N560        N  0.94249146  0.43553720  0.92903915    -0.06900
N561        N  0.95323179  0.43631310  0.88128160    -0.59700
N562        N  0.92356538  0.40074687  0.05545563    -0.06500
N563        N  0.92093225  0.37972455  0.10253445    -0.62200
C564        C  0.94038671  0.40468238  0.13134070     0.94600
C565        C  0.94017410  0.39594255  0.85553029     0.94400
N566        N  0.83801757  0.43155965  0.93665616    -0.07800
N567        N  0.81684730  0.40746925  0.91358677    -0.60300
N568        N  0.86080627  0.39997618  0.05332659    -0.05900
N569        N  0.85736857  0.35846506  0.08348536    -0.61500
N570        N  0.83881045  0.43171016  0.05410047    -0.07800
N571        N  0.81933111  0.40971701  0.08383730    -0.60500
N572        N  0.85994875  0.39952823  0.93434093    -0.05500
N573        N  0.85446769  0.35580586  0.90761913    -0.61600
Mn574      Mn  0.89239386  0.39897378  0.99353931     1.18400
C575        C  0.82765651  0.36050822  0.89458885     0.96700
C576        C  0.83178126  0.36460329  0.10306731     0.97300
N577        N  0.94222712  0.56017752  0.93147226    -0.07800
N578        N  0.95439961  0.56041356  0.88519025    -0.64100
N579        N  0.92248461  0.59576664  0.05567946    -0.06600
N580        N  0.92078241  0.61883400  0.10225610    -0.64800
N581        N  0.94263953  0.56007335  0.05429410    -0.07300
N582        N  0.95499762  0.55850941  0.10003568    -0.64400
N583        N  0.92246217  0.59662705  0.93328254    -0.06200
N584        N  0.92075867  0.62216926  0.88853675    -0.65100
Mn585      Mn  0.94412627  0.49796636  0.99208038     1.10700
C586        C  0.94099450  0.59980943  0.85879979     0.97900
C587        C  0.94136622  0.59548927  0.12982033     0.98000
N588        N  0.83701303  0.56594744  0.05365377    -0.07300
N589        N  0.81565575  0.58948917  0.07798353    -0.62700
N590        N  0.85904849  0.59704126  0.93514434    -0.06600
N591        N  0.85337504  0.64220879  0.91155031    -0.59400
N592        N  0.83685838  0.56657679  0.93810951    -0.08000
N593        N  0.81527158  0.59377965  0.91943177    -0.62300
N594        N  0.85840354  0.59856055  0.05413228    -0.06900
N595        N  0.85247398  0.64265450  0.08043853    -0.59500
Mn596      Mn  0.83655073  0.49865709  0.99559794     1.20200
Mn597      Mn  0.89102330  0.59744310  0.99468844     1.10100
Cl598      Cl  0.89052982  0.49835743  0.99373118    -0.87400
C599        C  0.82605935  0.63674658  0.09579202     0.94900
C600        C  0.82613439  0.64070101  0.90199885     0.94700
N601        N  0.71464248  0.06128371  0.30596497    -0.07600
N602        N  0.70118357  0.08668312  0.34458848    -0.59700
N603        N  0.69836174  0.94215054  0.26442683    -0.07300
N604        N  0.67448029  0.91970225  0.27473314    -0.61800
N605        N  0.71456935  0.94202231  0.30574643    -0.06900
N606        N  0.70095305  0.92006518  0.34542768    -0.59700
N607        N  0.69907763  0.06229084  0.26381442    -0.06500
N608        N  0.67619531  0.08973323  0.27189168    -0.62200
C609        C  0.67756414  0.10536012  0.32172562     0.94600
C610        C  0.67604999  0.90579702  0.32490182     0.94400
N611        N  0.72108705  0.93974056  0.10651969    -0.07800
N612        N  0.72352353  0.89192446  0.08425327    -0.60300
N613        N  0.70119298  0.06442622  0.14521856    -0.05900
N614        N  0.68759841  0.11050941  0.14814433    -0.61500
N615        N  0.71993338  0.06545228  0.10806790    -0.07800
N616        N  0.71927655  0.11228652  0.08431914    -0.60500
N617        N  0.70300138  0.93815476  0.14494537    -0.05500
N618        N  0.69319000  0.88924152  0.15026126    -0.61600
Mn619      Mn  0.70026655  0.00158465  0.20355262     1.18400
C620        C  0.70623456  0.86103484  0.11225750     0.96700
C621        C  0.69874508  0.13963351  0.10948425     0.97300
N622        N  0.78539941  0.94100641  0.30745801    -0.07800
N623        N  0.79941808  0.92269756  0.34831380    -0.64100
N624        N  0.80222907  0.05898808  0.26799006    -0.06600
N625        N  0.82609963  0.08030772  0.27971275    -0.64800
N626        N  0.78540696  0.05881994  0.30886713    -0.07300
N627        N  0.79881805  0.07860481  0.34991130    -0.64400
N628        N  0.80177720  0.93879648  0.26589921    -0.06200
N629        N  0.82584428  0.91727281  0.27721843    -0.65100
Mn630      Mn  0.74989360  0.00078871  0.30896245     1.10700
C631        C  0.82458641  0.90759611  0.32833618     0.97900
C632        C  0.82408508  0.09240837  0.33041557     0.98000
N633        N  0.78351730  0.06805796  0.11287233    -0.07300
N634        N  0.78175588  0.11839450  0.09652438    -0.62700
N635        N  0.80130884  0.93666850  0.14649493    -0.06600
N636        N  0.81080874  0.88739659  0.15341905    -0.59400
N637        N  0.78354351  0.93769073  0.10808638    -0.08000
N638        N  0.78077320  0.88860212  0.08833958    -0.62300
N639        N  0.80203084  0.06475299  0.14993142    -0.06900
N640        N  0.81324135  0.11206005  0.15902445    -0.59500
Mn641      Mn  0.75227732  0.00326310  0.10586836     1.20200
Mn642      Mn  0.80188596  0.99959615  0.20614441     1.10100
Cl643      Cl  0.75102437  0.00140043  0.20745788    -0.87400
C644        C  0.80058360  0.14559333  0.12555136     0.94900
C645        C  0.79791063  0.85738980  0.11696616     0.94700
N646        N  0.71546083  0.06719712  0.87704351    -0.07600
N647        N  0.71726693  0.11738356  0.89408578    -0.59700
N648        N  0.69722055  0.93845043  0.84520874    -0.07300
N649        N  0.68570161  0.89116974  0.83944843    -0.61800
N650        N  0.71559516  0.93730064  0.88259034    -0.06900
N651        N  0.71696086  0.88813899  0.90248368    -0.59700
N652        N  0.69743951  0.06476884  0.83912551    -0.06500
N653        N  0.68662590  0.11256050  0.82996959    -0.62200
C654        C  0.69907361  0.14539688  0.86448689     0.94600
C655        C  0.69768758  0.85986830  0.87549283     0.94400
N656        N  0.71347808  0.93179537  0.68536485    -0.07800
N657        N  0.70006515  0.90622869  0.64723464    -0.60300
N658        N  0.69740525  0.05495083  0.72030745    -0.05900
N659        N  0.67352314  0.07660107  0.70790289    -0.61500
N660        N  0.71374888  0.04993289  0.67891696    -0.07800
N661        N  0.69988474  0.06623252  0.63706004    -0.60500
N662        N  0.69728477  0.93429948  0.72697037    -0.05500
N663        N  0.67409428  0.90894944  0.71911984    -0.61600
Mn664      Mn  0.69733718  0.99842938  0.78411322     1.18400
C665        C  0.67557021  0.89141676  0.66978919     0.96700
C666        C  0.67481991  0.08290281  0.65629371     0.97300
N667        N  0.77856604  0.93900385  0.88687833    -0.07800
N668        N  0.77755929  0.89272714  0.91169372    -0.64100
N669        N  0.79703395  0.06337873  0.84249676    -0.06600
N670        N  0.80910776  0.11039009  0.83722032    -0.64800
N671        N  0.77863382  0.06508581  0.88039882    -0.07300
N672        N  0.77809036  0.11333552  0.90224098    -0.64400
N673        N  0.79734919  0.93679797  0.84974137    -0.06200
N674        N  0.80938030  0.88902824  0.84818484    -0.65100
Mn675      Mn  0.74685946  0.00224122  0.88472523     1.10700
C676        C  0.79715238  0.86227701  0.88740108     0.97900
C677        C  0.79734779  0.14094329  0.87513619     0.98000
N678        N  0.78451666  0.04880066  0.68131588    -0.07300
N679        N  0.79786177  0.06823373  0.64009690    -0.62700
N680        N  0.79971243  0.93146669  0.73119884    -0.06600
N681        N  0.82249307  0.90319743  0.72518818    -0.59400
N682        N  0.78430356  0.92985579  0.68884518    -0.08000
N683        N  0.79784732  0.90184592  0.65205947    -0.62300
N684        N  0.80100700  0.05113260  0.72228282    -0.06900
N685        N  0.82490809  0.07257036  0.70996088    -0.59500
Mn686      Mn  0.74911028  0.99001141  0.68148761     1.20200
Mn687      Mn  0.79894569  0.99609382  0.78743729     1.10100
Cl688      Cl  0.74816694  0.99689572  0.78312422    -0.87400
C689        C  0.82291930  0.08345744  0.65908841     0.94900
C690        C  0.82129426  0.88437459  0.67638553     0.94700
N691        N  0.53342243  0.18572896  0.43774432    -0.07600
N692        N  0.54656982  0.14718580  0.41080536    -0.59700
N693        N  0.54739559  0.22744431  0.55688602    -0.07300
N694        N  0.57159038  0.21568119  0.57715201    -0.61800
N695        N  0.53194094  0.18399841  0.55292514    -0.06900
N696        N  0.54657754  0.14173995  0.56886767    -0.59700
N697        N  0.54926781  0.22858156  0.43991116    -0.06500
N698        N  0.57223167  0.22121511  0.41338656    -0.62200
C699        C  0.57053959  0.17095796  0.39517594     0.96400
C700        C  0.57126041  0.16250405  0.58385789     0.94400
N701        N  0.52367245  0.38907794  0.55990779    -0.07800
N702        N  0.52199137  0.41320805  0.60631490    -0.60300
N703        N  0.54646387  0.35000052  0.43659815    -0.05900
N704        N  0.55946271  0.34360010  0.39128542    -0.61500
N705        N  0.52641317  0.38571049  0.43286937    -0.07800
N706        N  0.52514147  0.40329836  0.38426410    -0.60500
N707        N  0.54311452  0.35183064  0.56086029    -0.05500
N708        N  0.55495255  0.34998009  0.60722242    -0.61600
Mn709      Mn  0.54665769  0.29069158  0.49908359     1.18400
C710        C  0.54201300  0.38901658  0.63523228     0.96700
C711        C  0.54619621  0.37739974  0.35891691     0.97300
N712        N  0.96420332  0.18694721  0.54548946    -0.07800
N713        N  0.95064724  0.14541465  0.56541867    -0.64100
N714        N  0.95139186  0.23434823  0.42813597    -0.06600
N715        N  0.92777315  0.22370340  0.40557552    -0.64800
N716        N  0.96719940  0.19083248  0.43073022    -0.07300
N717        N  0.95316203  0.14932949  0.41184580    -0.64400
N718        N  0.94745609  0.22923064  0.54518357    -0.06200
N719        N  0.92340770  0.21791097  0.56613641    -0.65100
Mn720      Mn  0.00093712  0.18641102  0.49073298     1.10700
C721        C  0.92520528  0.16592661  0.57862162     0.97900
C722        C  0.92865841  0.17092010  0.39595357     0.98000
N723        N  0.97079717  0.39492782  0.43239311    -0.07300
N724        N  0.97179773  0.41984880  0.38673336    -0.62700
N725        N  0.94794245  0.35184941  0.55331622    -0.06600
N726        N  0.93431955  0.34483636  0.59758645    -0.59400
N727        N  0.96656602  0.38957969  0.55815859    -0.08000
N728        N  0.96593622  0.40867828  0.60654294    -0.62300
N729        N  0.95179857  0.35762384  0.43083344    -0.06900
N730        N  0.93942691  0.35670718  0.38503877    -0.59500
Mn731      Mn  0.00074300  0.39473948  0.49921256     1.20200
Mn732      Mn  0.94975089  0.29433978  0.48933724     1.10100
Cl733      Cl  0.00083962  0.29086548  0.49551326    -0.87400
C734        C  0.95159358  0.39623571  0.35781524     0.94900
C735        C  0.94531610  0.38120873  0.63041875     0.94700
N736        N  0.53662950  0.59187978  0.43532763    -0.07600
N737        N  0.53625469  0.57058265  0.38808097    -0.59700
N738        N  0.55297122  0.63241914  0.55828493    -0.07300
N739        N  0.56449434  0.63959795  0.60420865    -0.61800
N740        N  0.53487027  0.59350025  0.55969014    -0.06900
N741        N  0.53373590  0.57381361  0.60753631    -0.59700
N742        N  0.55474632  0.63067832  0.43689427    -0.06500
N743        N  0.56709717  0.63619430  0.39128384    -0.62200
C744        C  0.55558955  0.59812389  0.36100607     0.94600
C745        C  0.55267432  0.60271890  0.63488184     0.94400
N746        N  0.53449659  0.79602455  0.55369466    -0.07800
N747        N  0.54611938  0.83793109  0.57720318    -0.60300
N748        N  0.55332479  0.75320807  0.43825286    -0.05900
N749        N  0.57705887  0.76534658  0.41644471    -0.61500
N750        N  0.53597343  0.79458305  0.43806204    -0.07800
N751        N  0.54885217  0.83642955  0.41717338    -0.60500
N752        N  0.55182544  0.75474988  0.55506508    -0.05500
N753        N  0.57439733  0.76676000  0.58057506    -0.61600
Mn754      Mn  0.55322680  0.69163899  0.49707853     1.18400
C755        C  0.57074362  0.81809957  0.59457948     0.96700
C756        C  0.57443286  0.81696085  0.40335571     0.97300
N757        N  0.96171898  0.59846502  0.55654709    -0.07800
N758        N  0.96287916  0.57746314  0.60341224    -0.64100
N759        N  0.94567259  0.64074284  0.43381639    -0.06600
N760        N  0.93433527  0.64755835  0.38762355    -0.64800
N761        N  0.96323259  0.60026557  0.43277747    -0.07300
N762        N  0.96408123  0.57885870  0.38531381    -0.64400
N763        N  0.94404224  0.63863651  0.55666232    -0.06200
N764        N  0.93291147  0.64556036  0.60351826    -0.65100
Mn765      Mn  0.99405751  0.59253600  0.49645514     1.10700
C766        C  0.94466816  0.60667372  0.63245654     0.97900
C767        C  0.94570789  0.60851672  0.35741419     0.98000
N768        N  0.96472147  0.80457873  0.44397067    -0.07300
N769        N  0.95251955  0.84800718  0.42424819    -0.62700
N770        N  0.94710066  0.75910641  0.55805407    -0.06600
N771        N  0.92496994  0.76782312  0.58655841    -0.59400
N772        N  0.96429520  0.79993976  0.56023843    -0.08000
N773        N  0.95270098  0.83888282  0.58921830    -0.62300
N774        N  0.94739259  0.76391622  0.44107376    -0.06900
N775        N  0.92425475  0.77818866  0.41841490    -0.59500
Mn776      Mn  0.99972507  0.80091875  0.50181741     1.20200
Mn777      Mn  0.94589492  0.69967828  0.49701150     1.10100
Cl778      Cl  0.99697407  0.69651083  0.49863943    -0.87400
C779        C  0.92737958  0.83022494  0.40786852     0.94900
C780        C  0.92840440  0.81700149  0.60615036     0.94700
C781        C  0.86035310  0.89194062  0.61273140    -0.10600
C782        C  0.84706213  0.86322794  0.65248600     0.05600
C783        C  0.86237902  0.82447574  0.68007155    -0.04400
C784        C  0.89039856  0.81584559  0.66881934    -0.08800
C785        C  0.90383205  0.84394752  0.62890669     0.04700
C786        C  0.88835225  0.88164892  0.60004254    -0.03900
Br787      Br  0.90375589  0.91612009  0.54009355    -0.03600
H788        H  0.84913387  0.92301692  0.59218195     0.08600
H789        H  0.90135781  0.78418350  0.68911961     0.06600
Br790      Br  0.84547038  0.78078169  0.73268004    -0.04000
C791        C  0.61385510  0.86928550  0.57854690    -0.10600
C792        C  0.59455361  0.84826071  0.61432096     0.05600
C793        C  0.60300719  0.83883956  0.66548349    -0.04400
C794        C  0.63017550  0.84912075  0.68006123    -0.08800
C795        C  0.64968429  0.87112450  0.64532377     0.04700
C796        C  0.64113543  0.88171164  0.59381714    -0.03900
Br797      Br  0.66521873  0.91323889  0.54318829    -0.03600
H798        H  0.60799258  0.87415746  0.53813239     0.08600
H799        H  0.63591754  0.84084557  0.71981988     0.06600
Br800      Br  0.57809932  0.81037750  0.71675276    -0.04000
C801        C  0.87325981  0.07035700  0.64022309    -0.10600
C802        C  0.84803496  0.09668310  0.62831042     0.05600
C803        C  0.84849704  0.13958645  0.59348164    -0.04400
C804        C  0.87394099  0.15902220  0.57575551    -0.08800
C805        C  0.89945455  0.13594161  0.59133555     0.04700
C806        C  0.89880416  0.08889360  0.62118864    -0.03900
Br807      Br  0.93182933  0.05012233  0.63921915    -0.03600
H808        H  0.87317170  0.03609862  0.66596304     0.08600
H809        H  0.87365899  0.19390102  0.55084428     0.06600
Br810      Br  0.81527843  0.17625760  0.57298544    -0.04000
C811        C  0.64817088  0.12954021  0.58669005    -0.10600
C812        C  0.64895945  0.09174667  0.62649272     0.05600
C813        C  0.62363930  0.06877759  0.64358169    -0.04400
C814        C  0.59820984  0.08940207  0.62646909    -0.08800
C815        C  0.59744135  0.13200237  0.59157680     0.04700
C816        C  0.62269936  0.14922526  0.56862049    -0.03900
Br817      Br  0.62394846  0.19950258  0.51228063    -0.03600
H818        H  0.66729271  0.14607455  0.57173916     0.08600
H819        H  0.57909020  0.07412498  0.64270093     0.06600
Br820      Br  0.62219401  0.00962161  0.69112851    -0.04000
C821        C  0.87585889  0.91481951  0.33464627    -0.10600
C822        C  0.85065763  0.89777299  0.35753185     0.05600
C823        C  0.85181865  0.86778437  0.40350375    -0.04400
C824        C  0.87761860  0.85062764  0.42220270    -0.08800
C825        C  0.90258178  0.86319079  0.39612883     0.04700
C826        C  0.90161951  0.89770031  0.35347444    -0.03900
Br827      Br  0.93451602  0.91627913  0.31572990    -0.03600
H828        H  0.87560603  0.93929410  0.29996185     0.08600
H829        H  0.87807094  0.82437184  0.45565446     0.06600
Br830      Br  0.81907749  0.84419948  0.43889297    -0.04000
C831        C  0.62536833  0.82992309  0.40990568    -0.10600
C832        C  0.59963677  0.84829959  0.39034195     0.05600
C833        C  0.59957698  0.89136607  0.35549594    -0.04400
C834        C  0.62487692  0.91166095  0.33734522    -0.08800
C835        C  0.65060387  0.89026227  0.35382192     0.04700
C836        C  0.65062222  0.85058600  0.39220379    -0.03900
Br837      Br  0.68436448  0.81948123  0.41766923    -0.03600
H838        H  0.62597710  0.79760135  0.43786429     0.08600
H839        H  0.62439431  0.94314422  0.30848771     0.06600
Br840      Br  0.56584327  0.92054437  0.32807294    -0.04000
C841        C  0.87422495  0.07652461  0.34339417    -0.10600
C842        C  0.84966258  0.10321244  0.35997223     0.05600
C843        C  0.85160377  0.14612537  0.39527212    -0.04400
C844        C  0.87778747  0.16476506  0.40945220    -0.08800
C845        C  0.90236678  0.14170192  0.38835026     0.04700
C846        C  0.90042773  0.09561246  0.35702256    -0.03900
Br847      Br  0.93259026  0.06212877  0.32640020    -0.03600
H848        H  0.87307988  0.04293307  0.31638882     0.08600
H849        H  0.87882747  0.19958362  0.43495751     0.06600
Br850      Br  0.81943844  0.18488018  0.41939055    -0.04000
C851        C  0.63839547  0.09451731  0.38476310    -0.10600
C852        C  0.65202341  0.12566383  0.34712517     0.05600
C853        C  0.63706338  0.16678933  0.32215890    -0.04400
C854        C  0.60933331  0.17628810  0.33467253    -0.08800
C855        C  0.59562940  0.14589378  0.37245047     0.04700
C856        C  0.61041257  0.10468827  0.39788548    -0.03900
Br857      Br  0.59377586  0.06338441  0.45230512    -0.03600
H858        H  0.64919803  0.06119607  0.40266009     0.08600
H859        H  0.59865264  0.20955665  0.31631997     0.06600
Br860      Br  0.65365032  0.21160885  0.27018782    -0.04000
C861        C  0.79150910  0.70841631  0.07729544    -0.10600
C862        C  0.81012169  0.68487453  0.11240614     0.05600
C863        C  0.82074714  0.71668967  0.15293604    -0.04400
C864        C  0.81540662  0.77189052  0.15456969    -0.08800
C865        C  0.79930286  0.79718041  0.11615565     0.04700
C866        C  0.78579234  0.76397497  0.07903961    -0.03900
Br867      Br  0.76102955  0.79107118  0.02714031    -0.03600
H868        H  0.78337977  0.68455842  0.04543631     0.08600
H869        H  0.82509274  0.79537030  0.18503130     0.06600
Br870      Br  0.84516522  0.68685894  0.20403544    -0.04000
C871        C  0.79465296  0.29713795  0.09827668    -0.10600
C872        C  0.81802978  0.31649633  0.12387208     0.05600
C873        C  0.83327009  0.28086708  0.15550770    -0.04400
C874        C  0.82670735  0.22616062  0.15664269    -0.08800
C875        C  0.80484839  0.20534165  0.12678294     0.04700
C876        C  0.78796963  0.24249082  0.09988279    -0.03900
Br877      Br  0.75599435  0.22215438  0.06308975    -0.03600
H878        H  0.78284156  0.32361257  0.07332504     0.08600
H879        H  0.83958645  0.19956413  0.17948925     0.06600
Br880      Br  0.86487624  0.30445123  0.19449859    -0.04000
C881        C  0.81820171  0.72866097  0.94303284    -0.10600
C882        C  0.81131804  0.69291781  0.90227078     0.05600
C883        C  0.79775577  0.71321458  0.85817654    -0.04400
C884        C  0.79198349  0.76849323  0.85501287    -0.08800
C885        C  0.80047055  0.80410370  0.89458023     0.04700
C886        C  0.81385351  0.78386787  0.93857120    -0.03900
Br887      Br  0.83017218  0.83068790  0.98949236    -0.03600
H888        H  0.82953773  0.71407333  0.97649073     0.08600
H889        H  0.78201633  0.78407471  0.82049545     0.06600
Br890      Br  0.78920275  0.66809590  0.79977035    -0.04000
C891        C  0.81386823  0.27619036  0.93402923    -0.10600
C892        C  0.81197463  0.31016473  0.89065765     0.05600
C893        C  0.80336119  0.28861771  0.84260926    -0.04400
C894        C  0.79814611  0.23332921  0.83812663    -0.08800
C895        C  0.80188291  0.19911934  0.88096539     0.04700
C896        C  0.80964512  0.22108671  0.92917413    -0.03900
Br897      Br  0.81808987  0.17653784  0.98760107    -0.03600
H898        H  0.82129959  0.29188757  0.97090970     0.08600
H899        H  0.79177467  0.21681903  0.80091014     0.06600
Br900      Br  0.79992891  0.33255553  0.78204731    -0.04000
C901        C  0.93076395  0.64788980  0.71860358    -0.10600
C902        C  0.94327965  0.60521726  0.69039937     0.05600
C903        C  0.95572311  0.56331424  0.71854228    -0.04400
C904        C  0.95518321  0.56398176  0.77275267    -0.08800
C905        C  0.94284919  0.60595776  0.80123476     0.04700
C906        C  0.93050659  0.64872987  0.77347451    -0.03900
Br907      Br  0.91332374  0.70962041  0.80736931    -0.03600
H908        H  0.92138452  0.68113173  0.69802446     0.08600
H909        H  0.96301223  0.52939454  0.79289271     0.06600
Br910      Br  0.97296232  0.50234975  0.68620574    -0.04000
C911        C  0.92736948  0.63882969  0.21474963    -0.10600
C912        C  0.94390395  0.60072317  0.18781691     0.05600
C913        C  0.96027387  0.56528732  0.21766263    -0.04400
C914        C  0.95934931  0.56770498  0.27216285    -0.08800
C915        C  0.94331284  0.60597441  0.29922277     0.04700
C916        C  0.92700352  0.64204896  0.26954915    -0.03900
Br917      Br  0.90331343  0.69635110  0.30009006    -0.03600
H918        H  0.91433005  0.66619638  0.19308405     0.08600
H919        H  0.97108313  0.53874362  0.29384910     0.06600
Br920      Br  0.98331766  0.51029262  0.18762480    -0.04000
C921        C  0.92572181  0.42207706  0.71242140    -0.10600
C922        C  0.94078445  0.38049967  0.68780856     0.05600
C923        C  0.95195551  0.33923600  0.71888366    -0.04400
C924        C  0.95141536  0.34426748  0.77356527    -0.08800
C925        C  0.93964404  0.38979382  0.79792599     0.04700
C926        C  0.92502195  0.42681544  0.76702322    -0.03900
Br927      Br  0.90225353  0.48211422  0.79810559    -0.03600
H928        H  0.91524391  0.45199161  0.68910371     0.08600
H929        H  0.96004224  0.31252615  0.79707872     0.06600
Br930      Br  0.96726230  0.27476741  0.68831355    -0.04000
C931        C  0.93222037  0.43913197  0.27668801    -0.10600
C932        C  0.94904035  0.39969935  0.29984320     0.05600
C933        C  0.96051461  0.35899827  0.26741009    -0.04400
C934        C  0.95765361  0.36119787  0.21288535    -0.08800
C935        C  0.94194646  0.40184220  0.18947925     0.04700
C936        C  0.92793212  0.43933083  0.22222754    -0.03900
Br937      Br  0.90158740  0.48932777  0.19420063    -0.03600
H938        H  0.92165886  0.46868121  0.30107404     0.08600
H939        H  0.96716804  0.33027275  0.18868877     0.06600
Br940      Br  0.97833130  0.29715983  0.29654377    -0.04000
C941        C  0.66812021  0.72175551  0.84682004    -0.10600
C942        C  0.68581706  0.68687026  0.87379187     0.05600
C943        C  0.70940449  0.70901579  0.89817098    -0.04400
C944        C  0.71349343  0.76524670  0.89798057    -0.08800
C945        C  0.69371437  0.80029867  0.87591166     0.04700
C946        C  0.67062519  0.77726580  0.85074313    -0.03900
Br947      Br  0.63869260  0.81773647  0.82884523    -0.03600
H948        H  0.64959224  0.70596658  0.82875745     0.08600
H949        H  0.73162903  0.78161988  0.91672788     0.06600
Br950      Br  0.73507430  0.66545126  0.93619758    -0.04000
C951        C  0.67577668  0.22753959  0.83003493    -0.10600
C952        C  0.69572738  0.20514441  0.86340136     0.05600
C953        C  0.71153744  0.24068818  0.89423347    -0.04400
C954        C  0.70548148  0.29578805  0.89539793    -0.08800
C955        C  0.68366702  0.31682310  0.86612834     0.04700
C956        C  0.66968251  0.28257531  0.83130124    -0.03900
Br957      Br  0.64006126  0.30861491  0.78841965    -0.03600
H958        H  0.66383124  0.20196962  0.80444990     0.08600
H959        H  0.71611612  0.32130676  0.92310304     0.06600
Br960      Br  0.74044598  0.21738640  0.93834334    -0.04000
C961        C  0.70487225  0.71033214  0.13352069    -0.10600
C962        C  0.68903014  0.69454198  0.09038785     0.05600
C963        C  0.68165750  0.73385454  0.05307063    -0.04400
C964        C  0.68925873  0.78695323  0.05967171    -0.08800
C965        C  0.70305321  0.80323336  0.10417245     0.04700
C966        C  0.71175823  0.76471549  0.14079453    -0.03900
Br967      Br  0.73264045  0.78512739  0.20103871    -0.03600
H968        H  0.71036212  0.68129507  0.16297133     0.08600
H969        H  0.68265416  0.81654235  0.03145775     0.06600
Br970      Br  0.65769031  0.72117000  0.99545639    -0.04000
C971        C  0.69867161  0.23158599  0.14754535    -0.10600
C972        C  0.69401609  0.19763192  0.10442818     0.05600
C973        C  0.68613700  0.21985158  0.05674481    -0.04400
C974        C  0.68355864  0.27543097  0.05229136    -0.08800
C975        C  0.68691120  0.30960365  0.09584784     0.04700
C976        C  0.69474739  0.28727004  0.14373303    -0.03900
Br977      Br  0.69853235  0.33067664  0.20523336    -0.03600
H978        H  0.70494986  0.21462338  0.18443151     0.08600
H979        H  0.67617847  0.29173216  0.01579334     0.06600
Br980      Br  0.67514695  0.17543359  0.99918450    -0.04000
C981        C  0.53725722  0.57134469  0.72188088    -0.10600
C982        C  0.55559178  0.60235044  0.69289777     0.05600
C983        C  0.57541758  0.63317865  0.72046466    -0.04400
C984        C  0.57579547  0.63277697  0.77530713    -0.08800
C985        C  0.55727323  0.60116972  0.80411321     0.04700
C986        C  0.53808829  0.56970761  0.77620559    -0.03900
Br987      Br  0.51332861  0.52088631  0.80866188    -0.03600
H988        H  0.52217062  0.54691076  0.70159223     0.08600
H989        H  0.59125165  0.65645521  0.79546040     0.06600
Br990      Br  0.60360650  0.67459269  0.68670876    -0.04000
C991        C  0.54738583  0.56010691  0.21833327    -0.10600
C992        C  0.56045048  0.60256449  0.19294867     0.05600
C993        C  0.57359420  0.64219804  0.22359743    -0.04400
C994        C  0.57247922  0.63916495  0.27818269    -0.08800
C995        C  0.55850169  0.59720914  0.30332885     0.04700
C996        C  0.54613946  0.55740354  0.27242173    -0.03900
Br997      Br  0.52779239  0.49739322  0.30104415    -0.03600
H998        H  0.53869690  0.52760126  0.19590704     0.08600
H999        H  0.58224078  0.67045462  0.30096414     0.06600
Br1000     Br  0.59315883  0.70165212  0.19433881    -0.04000
C1001       C  0.53279169  0.35981507  0.72714695    -0.10600
C1002       C  0.54566920  0.39579064  0.69286248     0.05600
C1003       C  0.56389110  0.43394919  0.71413290    -0.04400
C1004       C  0.56760611  0.43772764  0.76858179    -0.08800
C1005       C  0.55393418  0.40272012  0.80280524     0.04700
C1006       C  0.53682921  0.36294666  0.78142955    -0.03900
Br1007     Br  0.51947614  0.31118373  0.82544475    -0.03600
H1008       H  0.52009762  0.32824699  0.71156105     0.08600
H1009       H  0.58141725  0.46780245  0.78422023     0.06600
Br1010     Br  0.58564721  0.47865676  0.66977882    -0.04000
C1011       C  0.53090260  0.36354639  0.26606455    -0.10600
C1012       C  0.55150690  0.37961304  0.30148019     0.05600
C1013       C  0.57649107  0.40016972  0.28126159    -0.04400
C1014       C  0.57947250  0.40903353  0.22733872    -0.08800
C1015       C  0.55825287  0.39549580  0.19244634     0.04700
C1016       C  0.53469064  0.36974883  0.21192516    -0.03900
Br1017     Br  0.50927458  0.33789895  0.16416518    -0.03600
H1018       H  0.51205897  0.34564983  0.28050017     0.08600
H1019       H  0.59830926  0.42696986  0.21269209     0.06600
Br1020     Br  0.60639151  0.41948769  0.32631540    -0.04000
loop_ 
_geom_bond_atom_site_label_1 
_geom_bond_atom_site_label_2 
_geom_bond_distance 
_geom_bond_site_symmetry_2 
_ccdc_geom_bond_type 
N1            N2   1.332       .  A
N1            N7   1.319       .  A
N1          Mn30   2.254   1_554  S
N2            C9   1.364       .  A
N3            N5   1.318       .  A
N3            N4   1.310       .  A
N3          Mn19   2.172   1_556  S
N4           C10   1.339       .  A
N5            N6   1.330       .  A
N5          Mn30   2.240       .  S
N6           C10   1.363       .  A
N7            N8   1.309       .  A
N7          Mn19   2.162       .  S
N8            C9   1.336       .  A
C9          C465   1.474       .  S
C10         C445   1.472       .  S
N11          N17   1.312       .  A
N11          N12   1.323       .  A
N11         Mn41   2.213   1_556  S
N12          C20   1.353       .  A
N13          N14   1.322       .  A
N13          N15   1.312       .  A
N13         Mn19   2.183       .  S
N14          C21   1.347       .  A
N15          N16   1.327       .  A
N15         Mn41   2.223       .  S
N16          C21   1.356       .  A
N17          N18   1.323       .  A
N17         Mn19   2.178   1_556  S
N18          C20   1.347       .  A
Mn19        Cl43   2.460   1_554  S
C20         C495   1.483       .  S
C21         C505   1.484       .  S
N22          N23   1.331       .  A
N22          N28   1.321       .  A
N22         Mn30   2.238       .  S
N23          C31   1.361       .  A
N24          N26   1.322       .  A
N24          N25   1.310       .  A
N24         Mn42   2.184   1_554  S
N25          C32   1.338       .  A
N26          N27   1.331       .  A
N26         Mn30   2.246   1_554  S
N27          C32   1.362       .  A
N28          N29   1.311       .  A
N28         Mn42   2.187       .  S
N29          C31   1.341       .  A
Mn30        Cl43   2.608       .  S
C31         C432   1.486       .  S
C32         C452   1.480       .  S
N33          N34   1.319       .  A
N33          N39   1.311       .  A
N33         Mn41   2.195       .  S
N34          C44   1.354       .  A
N35          N36   1.321       .  A
N35          N37   1.312       .  A
N35         Mn42   2.200       .  S
N36          C45   1.354       .  A
N37          N38   1.324       .  A
N37         Mn41   2.208   1_556  S
N38          C45   1.355       .  A
N39          N40   1.322       .  A
N39         Mn42   2.184   1_554  S
N40          C44   1.350       .  A
Mn41        Cl43   2.594   1_554  S
Mn42        Cl43   2.455       .  S
C44         C482   1.484       .  S
C45         C475   1.497       .  S
N46          N47   1.325       .  A
N46          N52   1.313       .  A
N46         Mn75   2.226   1_554  S
N47          C54   1.356       .  A
N48          N50   1.311       .  A
N48          N49   1.320       .  A
N48         Mn64   2.167       .  S
N49          C55   1.346       .  A
N50          N51   1.327       .  A
N50         Mn75   2.234       .  S
N51          C55   1.358       .  A
N52          N53   1.323       .  A
N52         Mn64   2.179   1_554  S
N53          C54   1.345       .  A
C54         C425   1.487       .  S
C55         C415   1.481       .  S
N56          N62   1.320       .  A
N56          N57   1.330       .  A
N56         Mn86   2.256       .  S
N57          C65   1.363       .  A
N58          N59   1.308       .  A
N58          N60   1.317       .  A
N58         Mn64   2.154   1_554  S
N59          C66   1.336       .  A
N60          N61   1.332       .  A
N60         Mn86   2.257   1_554  S
N61          C66   1.368       .  A
N62          N63   1.311       .  A
N62         Mn64   2.176       .  S
N63          C65   1.341       .  A
Mn64        Cl88   2.477       .  S
C65         C382   1.476       .  S
C66         C362   1.474       .  S
N67          N68   1.321       .  A
N67          N73   1.312       .  A
N67         Mn75   2.206       .  S
N68          C76   1.356       .  A
N69          N71   1.311       .  A
N69          N70   1.322       .  A
N69         Mn87   2.194   1_554  S
N70          C77   1.354       .  A
N71          N72   1.323       .  A
N71         Mn75   2.216   1_554  S
N72          C77   1.356       .  A
N73          N74   1.322       .  A
N73         Mn87   2.182       .  S
N74          C76   1.348       .  A
Mn75        Cl88   2.581       .  S
C76         C395   1.492       .  S
C77         C402   1.501       .  S
N78          N79   1.330       .  A
N78          N84   1.322       .  A
N78         Mn86   2.242   1_554  S
N79          C89   1.360       .  A
N80          N81   1.308       .  A
N80          N82   1.320       .  A
N80         Mn87   2.175       .  S
N81          C90   1.339       .  A
N82          N83   1.333       .  A
N82         Mn86   2.252       .  S
N83          C90   1.364       .  A
N84          N85   1.315       .  A
N84         Mn87   2.189   1_554  S
N85          C89   1.342       .  A
Mn86        Cl88   2.601       .  S
Mn87        Cl88   2.465       .  S
C89         C352   1.481       .  S
C90         C372   1.486       .  S
N91          N92   1.331       .  A
N91          N97   1.320       .  A
N91        Mn120   2.258   1_545  S
N92          C99   1.363       .  A
N93          N95   1.322       .  A
N93          N94   1.312       .  A
N93        Mn109   2.171       .  S
N94         C100   1.339       .  A
N95          N96   1.331       .  A
N95        Mn120   2.256       .  S
N96         C100   1.363       .  A
N97          N98   1.309       .  A
N97        Mn109   2.161   1_545  S
N98          C99   1.337       .  A
C99         C342   1.469       .  S
C100        C325   1.484       .  S
N101        N107   1.313       .  A
N101        N102   1.321       .  A
N101       Mn131   2.185       .  S
N102        C110   1.348       .  A
N103        N104   1.320       .  A
N103        N105   1.311       .  A
N103       Mn109   2.182   1_545  S
N104        C111   1.347       .  A
N105        N106   1.323       .  A
N105       Mn131   2.205   1_545  S
N106        C111   1.355       .  A
N107        N108   1.319       .  A
N107       Mn109   2.188       .  S
N108        C110   1.348       .  A
Mn109      Cl133   2.458       .  S
C110        C455   1.462       .  S
C111        C462   1.475       .  S
N112        N113   1.336       .  A
N112        N118   1.320       .  A
N112       Mn120   2.266       .  S
N113        C121   1.368       .  A
N114        N116   1.320       .  A
N114        N115   1.308       .  A
N114       Mn132   2.161   1_545  S
N115        C122   1.335       .  A
N116        N117   1.330       .  A
N116       Mn120   2.235   1_545  S
N117        C122   1.360       .  A
N118        N119   1.305       .  A
N118       Mn132   2.157       .  S
N119        C121   1.335       .  A
Mn120      Cl133   2.608       .  S
C121        C312   1.495       .  S
C122        C332   1.463       .  S
N123        N124   1.326       .  A
N123        N129   1.311       .  A
N123       Mn131   2.222   1_545  S
N124        C134   1.359       .  A
N125        N126   1.317       .  A
N125        N127   1.309       .  A
N125       Mn132   2.167       .  S
N126        C135   1.347       .  A
N127        N128   1.330       .  A
N127       Mn131   2.228       .  S
N128        C135   1.360       .  A
N129        N130   1.319       .  A
N129       Mn132   2.172   1_545  S
N130        C134   1.348       .  A
Mn131      Cl133   2.601       .  S
Mn132      Cl133   2.457       .  S
C134        C365   1.499       .  S
C135        C355   1.502       .  S
N136        N137   1.327       .  A
N136        N142   1.311       .  A
N136       Mn165   2.220   1_545  S
N137        C144   1.359       .  A
N138        N140   1.310       .  A
N138        N139   1.316       .  A
N138       Mn154   2.177       .  S
N139        C145   1.346       .  A
N140        N141   1.330       .  A
N140       Mn165   2.221       .  S
N141        C145   1.360       .  A
N142        N143   1.318       .  A
N142       Mn154   2.168   1_545  S
N143        C144   1.347       .  A
C144        C442   1.498       .  S
C145        C435   1.499       .  S
N146        N152   1.321       .  A
N146        N147   1.330       .  A
N146       Mn176   2.235       .  S
N147        C155   1.360       .  A
N148        N149   1.309       .  A
N148        N150   1.321       .  A
N148       Mn154   2.165   1_545  S
N149        C156   1.335       .  A
N150        N151   1.334       .  A
N150       Mn176   2.263   1_545  S
N151        C156   1.365       .  A
N152        N153   1.310       .  A
N152       Mn154   2.171       .  S
N153        C155   1.337       .  A
Mn154      Cl178   2.457       .  S
C155        C285   1.466       .  S
C156        C302   1.488       .  S
N157        N158   1.325       .  A
N157        N163   1.312       .  A
N157       Mn165   2.197       .  S
N158        C166   1.352       .  A
N159        N161   1.312       .  A
N159        N160   1.322       .  A
N159       Mn177   2.183   1_545  S
N160        C167   1.348       .  A
N161        N162   1.323       .  A
N161       Mn165   2.210   1_545  S
N162        C167   1.354       .  A
N163        N164   1.319       .  A
N163       Mn177   2.189       .  S
N164        C166   1.348       .  A
Mn165      Cl178   2.602       .  S
C166        C375   1.470       .  S
C167        C385   1.479       .  S
N168        N169   1.330       .  A
N168        N174   1.321       .  A
N168       Mn176   2.246   1_545  S
N169        C179   1.362       .  A
N170        N171   1.311       .  A
N170        N172   1.320       .  A
N170       Mn177   2.162       .  S
N171        C180   1.338       .  A
N172        N173   1.332       .  A
N172       Mn176   2.260       .  S
N173        C180   1.364       .  A
N174        N175   1.309       .  A
N174       Mn177   2.168   1_545  S
N175        C179   1.339       .  A
Mn176      Cl178   2.606       .  S
Mn177      Cl178   2.460       .  S
C179        C292   1.473       .  S
C180        C272   1.478       .  S
N181        N182   1.332       .  A
N181        N187   1.320       .  A
N181       Mn720   2.248       .  S
N182        C189   1.364       .  A
N183        N185   1.323       .  A
N183        N184   1.313       .  A
N183       Mn199   2.170       .  S
N184        C190   1.337       .  A
N185        N186   1.333       .  A
N185       Mn720   2.258       .  S
N186        C190   1.361       .  A
N187        N188   1.307       .  A
N187       Mn199   2.161       .  S
N188        C189   1.336       .  A
C189        C345   1.474       .  S
C190        C305   1.486       .  S
N191        N197   1.313       .  A
N191        N192   1.328       .  A
N191       Mn731   2.240       .  S
N192        C200   1.360       .  A
N193        N194   1.322       .  A
N193        N195   1.311       .  A
N193       Mn199   2.172       .  S
N194        C201   1.345       .  A
N195        N196   1.325       .  A
N195       Mn731   2.234       .  S
N196        C201   1.360       .  A
N197        N198   1.320       .  A
N197       Mn199   2.181       .  S
N198        C200   1.348       .  A
Mn199      Cl733   2.473       .  S
C200        C492   1.484       .  S
C201        C502   1.488       .  S
N202        N203   1.331       .  A
N202        N208   1.320       .  A
N202       Mn210   2.249       .  S
N203        C211   1.364       .  A
N204        N206   1.317       .  A
N204        N205   1.302       .  A
N204       Mn222   2.143       .  S
N205        C212   1.334       .  A
N206        N207   1.335       .  A
N206       Mn210   2.249       .  S
N207        C212   1.366       .  A
N208        N209   1.308       .  A
N208       Mn222   2.158       .  S
N209        C211   1.335       .  A
Mn210       N691   2.247       .  S
Mn210       N695   2.249       .  S
Mn210      Cl223   2.619       .  S
C211        C295   1.467       .  S
C212        C335   1.483       .  S
N213        N214   1.329       .  A
N213        N219   1.311       .  A
N213       Mn221   2.236       .  S
N214        C224   1.360       .  A
N215        N216   1.320       .  A
N215        N217   1.311       .  A
N215       Mn222   2.163       .  S
N216        C225   1.346       .  A
N217        N218   1.321       .  A
N217       Mn221   2.224       .  S
N218        C225   1.357       .  A
N219        N220   1.318       .  A
N219       Mn222   2.170       .  S
N220        C224   1.346       .  A
Mn221       N701   2.254       .  S
Mn221       N705   2.225       .  S
Mn221      Cl223   2.574       .  S
Mn222      Cl223   2.464       .  S
Cl223      Mn709   2.472       .  S
C224        C422   1.484       .  S
C225        C412   1.479       .  S
N226        N227   1.320       .  A
N226        N232   1.310       .  A
N226       Mn765   2.194   1_455  S
N227        C234   1.353       .  A
N228        N230   1.312       .  A
N228        N229   1.321       .  A
N228       Mn244   2.190       .  S
N229        C235   1.349       .  A
N230        N231   1.328       .  A
N230       Mn765   2.232   1_455  S
N231        C235   1.361       .  A
N232        N233   1.320       .  A
N232       Mn244   2.175       .  S
N233        C234   1.349       .  A
C234        C485   1.484       .  S
C235        C472   1.503       .  S
N236        N242   1.321       .  A
N236        N237   1.334       .  A
N236       Mn776   2.261   1_455  S
N237        C245   1.365       .  A
N238        N239   1.311       .  A
N238        N240   1.322       .  A
N238       Mn244   2.176       .  S
N239        C246   1.340       .  A
N240        N241   1.332       .  A
N240       Mn776   2.257   1_455  S
N241        C246   1.364       .  A
N242        N243   1.308       .  A
N242       Mn244   2.155       .  S
N243        C245   1.335       .  A
Mn244      Cl778   2.464   1_455  S
C245        C282   1.487       .  S
C246        C322   1.488       .  S
N247        N248   1.322       .  A
N247        N253   1.309       .  A
N247       Mn255   2.201       .  S
N248        C256   1.356       .  A
N249        N251   1.312       .  A
N249        N250   1.320       .  A
N249       Mn267   2.185       .  S
N250        C257   1.348       .  A
N251        N252   1.328       .  A
N251       Mn255   2.238       .  S
N252        C257   1.362       .  A
N253        N254   1.320       .  A
N253       Mn267   2.182       .  S
N254        C256   1.351       .  A
Mn255       N736   2.202       .  S
Mn255       N740   2.231       .  S
Mn255      Cl268   2.588       .  S
C256        C392   1.491       .  S
C257        C405   1.503       .  S
N258        N259   1.331       .  A
N258        N264   1.323       .  A
N258       Mn266   2.257       .  S
N259        C269   1.362       .  A
N260        N261   1.309       .  A
N260        N262   1.322       .  A
N260       Mn267   2.161       .  S
N261        C270   1.337       .  A
N262        N263   1.332       .  A
N262       Mn266   2.263       .  S
N263        C270   1.364       .  A
N264        N265   1.312       .  A
N264       Mn267   2.162       .  S
N265        C269   1.336       .  A
Mn266       N746   2.251       .  S
Mn266       N750   2.268       .  S
Mn266      Cl268   2.598       .  S
Mn267      Cl268   2.478       .  S
Cl268      Mn754   2.479       .  S
C269        C315   1.474       .  S
C270        C275   1.476       .  S
C271        C272   1.406       .  A
C271        C276   1.409       .  A
C271        H278   1.082       .  S
C272        C273   1.410       .  A
C273        C274   1.395       .  A
C273       Br280   1.923       .  S
C274        C275   1.403       .  A
C274        H279   1.084       .  S
C275        C276   1.413       .  A
C276       Br277   1.917       .  S
C281        C282   1.409       .  A
C281        C286   1.390       .  A
C281        H288   1.079       .  S
C282        C283   1.413       .  A
C283        C284   1.410       .  A
C283       Br290   1.917       .  S
C284        C285   1.409       .  A
C284        H289   1.084       .  S
C285        C286   1.398       .  A
C286       Br287   1.921       .  S
C291        C292   1.402       .  A
C291        C296   1.391       .  A
C291        H298   1.084       .  S
C292        C293   1.411       .  A
C293        C294   1.407       .  A
C293       Br300   1.916       .  S
C294        C295   1.406       .  A
C294        H299   1.084       .  S
C295        C296   1.408       .  A
C296       Br297   1.919       .  S
C301        C302   1.396       .  A
C301        C306   1.404       .  A
C301        H308   1.083       .  S
C302        C303   1.424       .  A
C303        C304   1.402       .  A
C303       Br310   1.923       .  S
C304        C305   1.394       .  A
C304        H309   1.083       .  S
C305        C306   1.422       .  A
C306       Br307   1.920       .  S
C311        C312   1.419       .  A
C311        C316   1.394       .  A
C311        H318   1.082       .  S
C312        C313   1.407       .  A
C313        C314   1.407       .  A
C313       Br320   1.916       .  S
C314        C315   1.413       .  A
C314        H319   1.084       .  S
C315        C316   1.394       .  A
C316       Br317   1.919       .  S
C321        C322   1.415       .  A
C321        C326   1.400       .  A
C321        H328   1.083       .  S
C322        C323   1.404       .  A
C323        C324   1.403       .  A
C323       Br330   1.918       .  S
C324        C325   1.414       .  A
C324        H329   1.084       .  S
C325        C326   1.401       .  A
C326       Br327   1.917       .  S
C331        C332   1.410       .  A
C331        C336   1.411       .  A
C331        H338   1.084       .  S
C332        C333   1.397       .  A
C333        C334   1.387       .  A
C333       Br340   1.920       .  S
C334        C335   1.409       .  A
C334        H339   1.084       .  S
C335        C336   1.413       .  A
C336       Br337   1.917       .  S
C341        C342   1.407       .  A
C341        C346   1.408       .  A
C341        H348   1.083       .  S
C342        C343   1.405       .  A
C343        C344   1.392       .  A
C343       Br350   1.920       .  S
C344        C345   1.404       .  A
C344        H349   1.085       .  S
C345        C346   1.412       .  A
C346       Br347   1.917       .  S
C351        C352   1.407       .  A
C351        C356   1.411       .  A
C351        H358   1.084       .  S
C352        C353   1.404       .  A
C353        C354   1.398       .  A
C353       Br360   1.921       .  S
C354        C355   1.411       .  A
C354        H359   1.083       .  S
C355        C356   1.418       .  A
C356       Br357   1.916       .  S
C361        C362   1.396       .  A
C361        C366   1.401       .  A
C361        H368   1.084       .  S
C362        C363   1.413       .  A
C363        C364   1.401       .  A
C363       Br370   1.922       .  S
C364        C365   1.407       .  A
C364        H369   1.083       .  S
C365        C366   1.414       .  A
C366       Br367   1.886       .  S
C371        C372   1.411       .  A
C371        C376   1.389       .  A
C371        H378   1.083       .  S
C372        C373   1.407       .  A
C373        C374   1.412       .  A
C373       Br380   1.915       .  S
C374        C375   1.410       .  A
C374        H379   1.083       .  S
C375        C376   1.397       .  A
C376       Br377   1.921       .  S
C381        C382   1.407       .  A
C381        C386   1.397       .  A
C381        H388   1.085       .  S
C382        C383   1.408       .  A
C383        C384   1.408       .  A
C383       Br390   1.916       .  S
C384        C385   1.409       .  A
C384        H389   1.083       .  S
C385        C386   1.402       .  A
C386       Br387   1.914       .  S
C391        C392   1.410       .  A
C391        C396   1.406       .  A
C391        H398   1.083       .  S
C392        C393   1.410       .  A
C393        C394   1.393       .  A
C393       Br400   1.909       .  S
C394        C395   1.399       .  A
C394        H399   1.081       .  S
C395        C396   1.414       .  A
C396       Br397   1.920       .  S
C401        C402   1.408       .  A
C401        C406   1.406       .  A
C401        H408   1.083       .  S
C402        C403   1.416       .  A
C403        C404   1.403       .  A
C403       Br410   1.915       .  S
C404        C405   1.400       .  A
C404        H409   1.078       .  S
C405        C406   1.420       .  A
C406       Br407   1.921       .  S
C411        C412   1.402       .  A
C411        C416   1.405       .  A
C411        H418   1.083       .  S
C412        C413   1.410       .  A
C413        C414   1.402       .  A
C413       Br420   1.922       .  S
C414        C415   1.401       .  A
C414        H419   1.080       .  S
C415        C416   1.412       .  A
C416       Br417   1.920       .  S
C421        C422   1.403       .  A
C421        C426   1.407       .  A
C421        H428   1.083       .  S
C422        C423   1.414       .  A
C423        C424   1.402       .  A
C423       Br430   1.920       .  S
C424        C425   1.399       .  A
C424        H429   1.083       .  S
C425        C426   1.411       .  A
C426       Br427   1.917       .  S
C431        C432   1.401       .  A
C431        C436   1.396       .  A
C431        H438   1.085       .  S
C432        C433   1.415       .  A
C433        C434   1.412       .  A
C433       Br440   1.919       .  S
C434        C435   1.411       .  A
C434        H439   1.083       .  S
C435        C436   1.418       .  A
C436       Br437   1.925       .  S
C441        C442   1.407       .  A
C441        C446   1.398       .  A
C441        H448   1.083       .  S
C442        C443   1.414       .  A
C443        C444   1.404       .  A
C443       Br450   1.893       .  S
C444        C445   1.400       .  A
C444        H449   1.084       .  S
C445        C446   1.408       .  A
C446       Br447   1.920       .  S
C451        C452   1.403       .  A
C451        C456   1.407       .  A
C451        H458   1.083       .  S
C452        C453   1.423       .  A
C453        C454   1.389       .  A
C453       Br460   1.922   1_554  S
C454        C455   1.387       .  A
C454        H459   1.084       .  S
C455        C456   1.410       .  A
C456       Br457   1.918       .  S
C461        C462   1.408       .  A
C461        C466   1.405       .  A
C461        H468   1.083       .  S
C462        C463   1.402       .  A
C463        C464   1.399       .  A
C463       Br470   1.919       .  S
C464        C465   1.410       .  A
C464        H469   1.084       .  S
C465        C466   1.405       .  A
C466       Br467   1.915       .  S
C471        C472   1.401       .  A
C471        C476   1.405       .  A
C471        H478   1.080       .  S
C472        C473   1.418       .  A
C473        C474   1.402       .  A
C473       Br480   1.911       .  S
C474        C475   1.404       .  A
C474        H479   1.085       .  S
C475        C476   1.414       .  A
C476       Br477   1.913       .  S
C481        C482   1.399       .  A
C481        C486   1.391       .  A
C481        H488   1.080       .  S
C482        C483   1.411       .  A
C483        C484   1.405       .  A
C483       Br490   1.918       .  S
C484        C485   1.410       .  A
C484        H489   1.083       .  S
C485        C486   1.406       .  A
C486       Br487   1.909       .  S
C491        C492   1.405       .  A
C491        C496   1.404       .  A
C491        H498   1.081       .  S
C492        C493   1.409       .  A
C493        C494   1.408       .  A
C493       Br500   1.918       .  S
C494        C495   1.409       .  A
C494        H499   1.083       .  S
C495        C496   1.403       .  A
C496       Br497   1.914       .  S
C501        C502   1.404       .  A
C501        C506   1.404       .  A
C501        H508   1.080       .  S
C502        C503   1.409       .  A
C503        C504   1.409       .  A
C503       Br510   1.917       .  S
C504        C505   1.408       .  A
C504        H509   1.083       .  S
C505        C506   1.404       .  A
C506       Br507   1.916       .  S
N511        N512   1.330       .  A
N511        N517   1.319       .  A
N511       Mn540   2.247   1_554  S
N512        C519   1.363       .  A
N513        N515   1.319       .  A
N513        N514   1.310       .  A
N513       Mn529   2.168       .  S
N514        C520   1.339       .  A
N515        N516   1.329       .  A
N515       Mn540   2.244       .  S
N516        C520   1.363       .  A
N517        N518   1.309       .  A
N517       Mn529   2.176   1_554  S
N518        C519   1.339       .  A
C519        C975   1.470       .  S
C520        C955   1.472       .  S
N521        N527   1.312       .  A
N521        N522   1.324       .  A
N521       Mn551   2.214       .  S
N522        C530   1.353       .  A
N523        N524   1.323       .  A
N523        N525   1.312       .  A
N523       Mn529   2.185   1_554  S
N524        C531   1.348       .  A
N525        N526   1.328       .  A
N525       Mn551   2.227   1_554  S
N526        C531   1.359       .  A
N527        N528   1.326       .  A
N527       Mn529   2.207       .  S
N528        C530   1.354       .  A
Mn529      Cl553   2.455       .  S
C530       C1005   1.493       .  S
C531       C1015   1.489       .  S
N532        N533   1.334       .  A
N532        N538   1.317       .  A
N532       Mn540   2.234       .  S
N533        C541   1.365       .  A
N534        N536   1.319       .  A
N534        N535   1.310       .  A
N534       Mn552   2.182   1_554  S
N535        C542   1.338       .  A
N536        N537   1.331       .  A
N536       Mn540   2.249   1_554  S
N537        C542   1.364       .  A
N538        N539   1.307       .  A
N538       Mn552   2.185       .  S
N539        C541   1.342       .  A
Mn540      Cl553   2.618       .  S
C541        C942   1.491       .  S
C542        C962   1.480       .  S
N543        N544   1.318       .  A
N543        N549   1.310       .  A
N543       Mn551   2.186   1_554  S
N544        C554   1.354       .  A
N545        N546   1.324       .  A
N545        N547   1.311       .  A
N545       Mn552   2.183       .  S
N546        C555   1.353       .  A
N547        N548   1.317       .  A
N547       Mn551   2.202       .  S
N548        C555   1.352       .  A
N549        N550   1.321       .  A
N549       Mn552   2.183   1_554  S
N550        C554   1.350       .  A
Mn551      Cl553   2.597       .  S
Mn552      Cl553   2.446       .  S
C554        C992   1.483       .  S
C555        C985   1.495       .  S
N556        N557   1.325       .  A
N556        N562   1.312       .  A
N556       Mn585   2.228   1_554  S
N557        C564   1.356       .  A
N558        N560   1.312       .  A
N558        N559   1.321       .  A
N558       Mn574   2.178       .  S
N559        C565   1.347       .  A
N560        N561   1.327       .  A
N560       Mn585   2.235       .  S
N561        C565   1.360       .  A
N562        N563   1.326       .  A
N562       Mn574   2.195   1_554  S
N563        C564   1.351       .  A
C564        C935   1.496       .  S
C565        C925   1.484       .  S
N566        N572   1.320       .  A
N566        N567   1.329       .  A
N566       Mn596   2.244       .  S
N567        C575   1.361       .  A
N568        N569   1.308       .  A
N568        N570   1.318       .  A
N568       Mn574   2.155   1_554  S
N569        C576   1.337       .  A
N570        N571   1.332       .  A
N570       Mn596   2.256   1_554  S
N571        C576   1.367       .  A
N572        N573   1.312       .  A
N572       Mn574   2.188       .  S
N573        C575   1.343       .  A
Mn574      Cl598   2.477       .  S
C575        C892   1.474       .  S
C576        C872   1.478       .  S
N577        N578   1.321       .  A
N577        N583   1.311       .  A
N577       Mn585   2.207       .  S
N578        C586   1.359       .  A
N579        N581   1.312       .  A
N579        N580   1.323       .  A
N579       Mn597   2.187   1_554  S
N580        C587   1.353       .  A
N581        N582   1.320       .  A
N581       Mn585   2.213   1_554  S
N582        C587   1.354       .  A
N583        N584   1.320       .  A
N583       Mn597   2.179       .  S
N584        C586   1.348       .  A
Mn585      Cl598   2.586       .  S
C586        C905   1.488       .  S
C587        C912   1.498       .  S
N588        N589   1.330       .  A
N588        N594   1.320       .  A
N588       Mn596   2.232   1_554  S
N589        C599   1.360       .  A
N590        N591   1.310       .  A
N590        N592   1.320       .  A
N590       Mn597   2.178       .  S
N591        C600   1.340       .  A
N592        N593   1.332       .  A
N592       Mn596   2.254       .  S
N593        C600   1.363       .  A
N594        N595   1.312       .  A
N594       Mn597   2.184   1_554  S
N595        C599   1.341       .  A
Mn596      Cl598   2.605       .  S
Mn597      Cl598   2.469       .  S
C599        C862   1.476       .  S
C600        C882   1.478       .  S
N601        N602   1.333       .  A
N601        N607   1.321       .  A
N601       Mn630   2.264       .  S
N602        C609   1.365       .  A
N603        N605   1.321       .  A
N603        N604   1.312       .  A
N603       Mn619   2.163   1_565  S
N604        C610   1.338       .  A
N605        N606   1.332       .  A
N605       Mn630   2.259   1_565  S
N606        C610   1.364       .  A
N607        N608   1.308       .  A
N607       Mn619   2.153       .  S
N608        C609   1.335       .  A
C609        C852   1.474       .  S
C610        C835   1.487       .  S
N611        N617   1.313       .  A
N611        N612   1.320       .  A
N611       Mn641   2.194   1_565  S
N612        C620   1.348       .  A
N613        N614   1.318       .  A
N613        N615   1.310       .  A
N613       Mn619   2.176       .  S
N614        C621   1.346       .  A
N615        N616   1.321       .  A
N615       Mn641   2.189       .  S
N616        C621   1.354       .  A
N617        N618   1.319       .  A
N617       Mn619   2.173   1_565  S
N618        C620   1.346       .  A
Mn619      Cl643   2.452       .  S
C620        C965   1.463       .  S
C621        C972   1.468       .  S
N622        N623   1.333       .  A
N622        N628   1.323       .  A
N622       Mn630   2.260   1_565  S
N623        C631   1.363       .  A
N624        N626   1.322       .  A
N624        N625   1.309       .  A
N624       Mn642   2.159   1_545  S
N625        C632   1.335       .  A
N626        N627   1.332       .  A
N626       Mn630   2.252       .  S
N627        C632   1.363       .  A
N628        N629   1.310       .  A
N628       Mn642   2.164       .  S
N629        C631   1.336       .  A
Mn630      Cl643   2.604       .  S
C631        C822   1.488       .  S
C632        C842   1.478       .  S
N633        N634   1.328       .  A
N633        N639   1.311       .  A
N633       Mn641   2.226       .  S
N634        C644   1.360       .  A
N635        N636   1.320       .  A
N635        N637   1.310       .  A
N635       Mn642   2.181       .  S
N636        C645   1.350       .  A
N637        N638   1.328       .  A
N637       Mn641   2.215   1_565  S
N638        C645   1.354       .  A
N639        N640   1.321       .  A
N639       Mn642   2.181   1_545  S
N640        C644   1.348       .  A
Mn641      Cl643   2.607       .  S
Mn642      Cl643   2.454   1_565  S
C644        C875   1.505       .  S
C645        C865   1.501       .  S
N646        N647   1.324       .  A
N646        N652   1.310       .  A
N646       Mn675   2.217       .  S
N647        C654   1.357       .  A
N648        N650   1.310       .  A
N648        N649   1.315       .  A
N648       Mn664   2.175       .  S
N649        C655   1.345       .  A
N650        N651   1.332       .  A
N650       Mn675   2.223   1_565  S
N651        C655   1.361       .  A
N652        N653   1.319       .  A
N652       Mn664   2.163   1_545  S
N653        C654   1.348       .  A
C654        C952   1.496       .  S
C655        C945   1.498       .  S
N656        N662   1.319       .  A
N656        N657   1.336       .  A
N656       Mn686   2.262       .  S
N657        C665   1.368       .  A
N658        N659   1.310       .  A
N658        N660   1.323       .  A
N658       Mn664   2.168   1_545  S
N659        C666   1.335       .  A
N660        N661   1.333       .  A
N660       Mn686   2.258   1_545  S
N661        C666   1.363       .  A
N662        N663   1.306       .  A
N662       Mn664   2.158       .  S
N663        C665   1.336       .  A
Mn664      Cl688   2.453       .  S
C665        C795   1.492       .  S
C666        C812   1.483       .  S
N667        N668   1.323       .  A
N667        N673   1.311       .  A
N667       Mn675   2.187   1_565  S
N668        C676   1.352       .  A
N669        N671   1.312       .  A
N669        N670   1.321       .  A
N669       Mn687   2.183   1_545  S
N670        C677   1.348       .  A
N671        N672   1.321       .  A
N671       Mn675   2.205       .  S
N672        C677   1.354       .  A
N673        N674   1.319       .  A
N673       Mn687   2.187       .  S
N674        C676   1.347       .  A
Mn675      Cl688   2.608   1_545  S
C676        C885   1.470       .  S
C677        C895   1.474       .  S
N678        N679   1.331       .  A
N678        N684   1.323       .  A
N678       Mn686   2.261   1_545  S
N679        C689   1.362       .  A
N680        N681   1.308       .  A
N680        N682   1.321       .  A
N680       Mn687   2.152       .  S
N681        C690   1.334       .  A
N682        N683   1.333       .  A
N682       Mn686   2.264       .  S
N683        C690   1.365       .  A
N684        N685   1.313       .  A
N684       Mn687   2.173   1_545  S
N685        C689   1.339       .  A
Mn686      Cl688   2.611       .  S
Mn687      Cl688   2.454       .  S
C689        C802   1.483       .  S
C690        C782   1.474       .  S
N691        N692   1.331       .  A
N691        N697   1.320       .  A
N692        C699   1.364       .  A
N693        N695   1.324       .  A
N693        N694   1.313       .  A
N693       Mn709   2.173       .  S
N694        C700   1.338       .  A
N695        N696   1.331       .  A
N696        C700   1.359       .  A
N697        N698   1.307       .  A
N697       Mn709   2.160       .  S
N698        C699   1.336       .  A
C699        C855   1.472       .  S
C700        C815   1.484       .  S
N701        N707   1.314       .  A
N701        N702   1.330       .  A
N702        C710   1.361       .  A
N703        N704   1.325       .  A
N703        N705   1.313       .  A
N703       Mn709   2.190       .  S
N704        C711   1.348       .  A
N705        N706   1.327       .  A
N706        C711   1.357       .  A
N707        N708   1.324       .  A
N707       Mn709   2.192       .  S
N708        C710   1.350       .  A
C710       C1002   1.498       .  S
C711       C1012   1.495       .  S
N712        N713   1.333       .  A
N712        N718   1.322       .  A
N712       Mn720   2.254   1_655  S
N713        C721   1.365       .  A
N714        N716   1.322       .  A
N714        N715   1.310       .  A
N714       Mn732   2.158       .  S
N715        C722   1.336       .  A
N716        N717   1.331       .  A
N716       Mn720   2.250   1_655  S
N717        C722   1.361       .  A
N718        N719   1.310       .  A
N718       Mn732   2.177       .  S
N719        C721   1.339       .  A
Mn720      Cl733   2.604       .  S
C721        C805   1.492       .  S
C722        C845   1.482       .  S
N723        N724   1.331       .  A
N723        N729   1.312       .  A
N723       Mn731   2.249   1_655  S
N724        C734   1.363       .  A
N725        N726   1.322       .  A
N725        N727   1.312       .  A
N725       Mn732   2.169       .  S
N726        C735   1.346       .  A
N727        N728   1.325       .  A
N727       Mn731   2.235   1_655  S
N728        C735   1.359       .  A
N729        N730   1.321       .  A
N729       Mn732   2.189       .  S
N730        C734   1.349       .  A
Mn731      Cl733   2.588       .  S
Mn732      Cl733   2.472   1_655  S
C734        C932   1.496       .  S
C735        C922   1.487       .  S
N736        N737   1.319       .  A
N736        N742   1.310       .  A
N737        C744   1.355       .  A
N738        N740   1.312       .  A
N738        N739   1.317       .  A
N738       Mn754   2.164       .  S
N739        C745   1.344       .  A
N740        N741   1.327       .  A
N741        C745   1.363       .  A
N742        N743   1.318       .  A
N742       Mn754   2.156       .  S
N743        C744   1.346       .  A
C744        C995   1.485       .  S
C745        C982   1.496       .  S
N746        N752   1.320       .  A
N746        N747   1.331       .  A
N747        C755   1.362       .  A
N748        N749   1.310       .  A
N748        N750   1.322       .  A
N748       Mn754   2.161       .  S
N749        C756   1.337       .  A
N750        N751   1.333       .  A
N751        C756   1.366       .  A
N752        N753   1.310       .  A
N752       Mn754   2.155       .  S
N753        C755   1.335       .  A
C755        C792   1.469       .  S
C756        C832   1.489       .  S
N757        N758   1.317       .  A
N757        N763   1.309       .  A
N757       Mn765   2.189       .  S
N758        C766   1.351       .  A
N759        N761   1.311       .  A
N759        N760   1.320       .  A
N759       Mn777   2.177       .  S
N760        C767   1.348       .  A
N761        N762   1.325       .  A
N761       Mn765   2.225       .  S
N762        C767   1.360       .  A
N763        N764   1.322       .  A
N763       Mn777   2.169       .  S
N764        C766   1.349       .  A
Mn765      Cl778   2.595       .  S
C766        C902   1.488       .  S
C767        C915   1.498       .  S
N768        N769   1.332       .  A
N768        N774   1.321       .  A
N768       Mn776   2.257       .  S
N769        C779   1.363       .  A
N770        N771   1.306       .  A
N770        N772   1.320       .  A
N770       Mn777   2.146       .  S
N771        C780   1.332       .  A
N772        N773   1.333       .  A
N772       Mn776   2.266       .  S
N773        C780   1.367       .  A
N774        N775   1.310       .  A
N774       Mn777   2.160       .  S
N775        C779   1.336       .  A
Mn776      Cl778   2.606       .  S
Mn777      Cl778   2.466       .  S
C779        C825   1.479       .  S
C780        C785   1.472       .  S
C781        C782   1.406       .  A
C781        C786   1.408       .  A
C781        H788   1.083       .  S
C782        C783   1.409       .  A
C783        C784   1.395       .  A
C783       Br790   1.924       .  S
C784        C785   1.404       .  A
C784        H789   1.085       .  S
C785        C786   1.412       .  A
C786       Br787   1.917       .  S
C791        C792   1.411       .  A
C791        C796   1.412       .  A
C791        H798   1.084       .  S
C792        C793   1.398       .  A
C793        C794   1.391       .  A
C793       Br800   1.921       .  S
C794        C795   1.410       .  A
C794        H799   1.080       .  S
C795        C796   1.413       .  A
C796       Br797   1.916       .  S
C801        C802   1.414       .  A
C801        C806   1.406       .  A
C801        H808   1.084       .  S
C802        C803   1.399       .  A
C803        C804   1.399       .  A
C803       Br810   1.917       .  S
C804        C805   1.415       .  A
C804        H809   1.083       .  S
C805        C806   1.406       .  A
C806       Br807   1.917       .  S
C811        C812   1.395       .  A
C811        C816   1.402       .  A
C811        H818   1.083       .  S
C812        C813   1.422       .  A
C813        C814   1.401       .  A
C813       Br820   1.923       .  S
C814        C815   1.395       .  A
C814        H819   1.083       .  S
C815        C816   1.422       .  A
C816       Br817   1.922       .  S
C821        C822   1.417       .  A
C821        C826   1.401       .  A
C821        H828   1.083       .  S
C822        C823   1.403       .  A
C823        C824   1.402       .  A
C823       Br830   1.917       .  S
C824        C825   1.413       .  A
C824        H829   1.084       .  S
C825        C826   1.398       .  A
C826       Br827   1.917       .  S
C831        C832   1.416       .  A
C831        C836   1.402       .  A
C831        H838   1.083       .  S
C832        C833   1.403       .  A
C833        C834   1.404       .  A
C833       Br840   1.917       .  S
C834        C835   1.415       .  A
C834        H839   1.083       .  S
C835        C836   1.401       .  A
C836       Br837   1.918       .  S
C841        C842   1.415       .  A
C841        C846   1.400       .  A
C841        H848   1.083       .  S
C842        C843   1.399       .  A
C843        C844   1.399       .  A
C843       Br850   1.916       .  S
C844        C845   1.415       .  A
C844        H849   1.083       .  S
C845        C846   1.400       .  A
C846       Br847   1.916       .  S
C851        C852   1.408       .  A
C851        C856   1.410       .  A
C851        H858   1.083       .  S
C852        C853   1.409       .  A
C853        C854   1.392       .  A
C853       Br860   1.922       .  S
C854        C855   1.401       .  A
C854        H859   1.085       .  S
C855        C856   1.412       .  A
C856       Br857   1.918       .  S
C861        C862   1.404       .  A
C861        C866   1.409       .  A
C861        H868   1.084       .  S
C862        C863   1.404       .  A
C863        C864   1.397       .  A
C863       Br870   1.918       .  S
C864        C865   1.408       .  A
C864        H869   1.083       .  S
C865        C866   1.421       .  A
C866       Br867   1.918       .  S
C871        C872   1.396       .  A
C871        C876   1.403       .  A
C871        H878   1.084       .  S
C872        C873   1.413       .  A
C873        C874   1.403       .  A
C873       Br880   1.923       .  S
C874        C875   1.408       .  A
C874        H879   1.083       .  S
C875        C876   1.414       .  A
C876       Br877   1.885       .  S
C881        C882   1.410       .  A
C881        C886   1.395       .  A
C881        H888   1.084       .  S
C882        C883   1.406       .  A
C883        C884   1.406       .  A
C883       Br890   1.914       .  S
C884        C885   1.407       .  A
C884        H889   1.084       .  S
C885        C886   1.399       .  A
C886       Br887   1.921       .  S
C891        C892   1.407       .  A
C891        C896   1.394       .  A
C891        H898   1.085       .  S
C892        C893   1.407       .  A
C893        C894   1.406       .  A
C893       Br900   1.915       .  S
C894        C895   1.408       .  A
C894        H899   1.083       .  S
C895        C896   1.402       .  A
C896       Br897   1.916       .  S
C901        C902   1.409       .  A
C901        C906   1.407       .  A
C901        H908   1.083       .  S
C902        C903   1.407       .  A
C903        C904   1.390       .  A
C903       Br910   1.906       .  S
C904        C905   1.396       .  A
C904        H909   1.075       .  S
C905        C906   1.416       .  A
C906       Br907   1.920       .  S
C911        C912   1.408       .  A
C911        C916   1.407       .  A
C911        H918   1.083       .  S
C912        C913   1.413       .  A
C913        C914   1.399       .  A
C913       Br920   1.910       .  S
C914        C915   1.399       .  A
C914        H919   1.074       .  S
C915        C916   1.419       .  A
C916       Br917   1.921       .  S
C921        C922   1.403       .  A
C921        C926   1.404       .  A
C921        H928   1.083       .  S
C922        C923   1.412       .  A
C923        C924   1.407       .  A
C923       Br930   1.920       .  S
C924        C925   1.403       .  A
C924        H929   1.081       .  S
C925        C926   1.409       .  A
C926       Br927   1.919       .  S
C931        C932   1.407       .  A
C931        C936   1.413       .  A
C931        H938   1.083       .  S
C932        C933   1.412       .  A
C933        C934   1.408       .  A
C933       Br940   1.917       .  S
C934        C935   1.401       .  A
C934        H939   1.082       .  S
C935        C936   1.415       .  A
C936       Br937   1.919       .  S
C941        C942   1.403       .  A
C941        C946   1.392       .  A
C941        H948   1.085       .  S
C942        C943   1.416       .  A
C943        C944   1.416       .  A
C943       Br950   1.917       .  S
C944        C945   1.412       .  A
C944        H949   1.083       .  S
C945        C946   1.415       .  A
C946       Br947   1.923       .  S
C951        C952   1.407       .  A
C951        C956   1.400       .  A
C951        H958   1.083       .  S
C952        C953   1.414       .  A
C953        C954   1.401       .  A
C953       Br960   1.892       .  S
C954        C955   1.398       .  A
C954        H959   1.084       .  S
C955        C956   1.409       .  A
C956       Br957   1.921       .  S
C961        C962   1.404       .  A
C961        C966   1.409       .  A
C961        H968   1.083       .  S
C962        C963   1.420       .  A
C963        C964   1.385       .  A
C963       Br970   1.908   1_554  S
C964        C965   1.384       .  A
C964        H969   1.085       .  S
C965        C966   1.412       .  A
C966       Br967   1.918       .  S
C971        C972   1.407       .  A
C971        C976   1.403       .  A
C971        H978   1.083       .  S
C972        C973   1.400       .  A
C973        C974   1.395       .  A
C973       Br980   1.917   1_554  S
C974        C975   1.409       .  A
C974        H979   1.085       .  S
C975        C976   1.405       .  A
C976       Br977   1.915       .  S
C981        C982   1.395       .  A
C981        C986   1.395       .  A
C981        H988   1.086       .  S
C982        C983   1.420       .  A
C983        C984   1.407       .  A
C983       Br990   1.921       .  S
C984        C985   1.407       .  A
C984        H989   1.086       .  S
C985        C986   1.413       .  A
C986       Br987   1.906       .  S
C991        C992   1.400       .  A
C991        C996   1.390       .  A
C991        H998   1.079       .  S
C992        C993   1.414       .  A
C993        C994   1.403       .  A
C993      Br1000   1.920       .  S
C994        C995   1.408       .  A
C994        H999   1.083       .  S
C995        C996   1.404       .  A
C996       Br997   1.896       .  S
C1001      C1002   1.407       .  A
C1001      C1006   1.409       .  A
C1001      H1008   1.077       .  S
C1002      C1003   1.410       .  A
C1003      C1004   1.411       .  A
C1003     Br1010   1.915       .  S
C1004      C1005   1.408       .  A
C1004      H1009   1.083       .  S
C1005      C1006   1.405       .  A
C1006     Br1007   1.916       .  S
C1011      C1012   1.409       .  A
C1011      C1016   1.409       .  A
C1011      H1018   1.081       .  S
C1012      C1013   1.412       .  A
C1013      C1014   1.409       .  A
C1013     Br1020   1.917       .  S
C1014      C1015   1.406       .  A
C1014      H1019   1.083       .  S
C1015      C1016   1.402       .  A
C1016     Br1017   1.912       .  S
