geometry optimzed in LAMMPS
_audit_creation_date              2020-11-30 
_audit_creation_method            'lammps2cif' 
_symmetry_space_group_name_H-M    'P1' 
_symmetry_Int_Tables_number       1 
_symmetry_cell_setting            triclinic 
loop_ 
_symmetry_equiv_pos_as_xyz 
  x,y,z 
_cell_length_a                    41.36235761 
_cell_length_b                    41.36221697748034 
_cell_length_c                    41.362378342895596 
_cell_angle_alpha                 90.02155759833441 
_cell_angle_beta                  89.99303847823052 
_cell_angle_gamma                 90.00431835479489 
loop_ 
_atom_site_label 
_atom_site_type_symbol 
_atom_site_fract_x 
_atom_site_fract_y 
_atom_site_fract_z 
_atom_site_charge 
N1          N  0.49386781  0.13438430  0.13567294    -0.03000
C2          C  0.98724631  0.10231681  0.13990064    -0.00400
C3          C  0.97774886  0.08761174  0.11151319    -0.23300
C4          C  0.97841416  0.11016193  0.08853447    -0.23500
C5          C  0.98844209  0.13850101  0.10301212    -0.00500
H6          H  0.97246683  0.06232492  0.10740541     0.13300
H7          H  0.97340199  0.10578360  0.06319858     0.13300
O8          O  0.99795893  0.19054823  0.15283795    -0.79700
O9          O  0.00055208  0.19135590  0.34096614    -0.81200
O10         O  0.05177306  0.15099126  0.24150202    -0.78200
O11         O  0.44910618  0.14907155  0.25084156    -0.76600
O12         O  0.41261789  0.19027881  0.25046618    -0.78400
O13         O  0.08840719  0.19210687  0.24166111    -0.79400
O14         O  0.00207904  0.15266726  0.30216774    -0.80700
O15         O  0.99732334  0.15199474  0.19179941    -0.81000
Eu16       Eu  0.00090334  0.17872836  0.24703191     2.39200
O17         O  0.46793094  0.21148235  0.28016818    -0.88500
O18         O  0.03232702  0.21286332  0.21423001    -0.92100
C19         C  0.99661382  0.16040231  0.16146565     1.02600
C20         C  0.00126380  0.16116787  0.33237314     1.02400
C21         C  0.08055111  0.16182107  0.23906430     1.02400
C22         C  0.42030663  0.15992913  0.25275242     1.00200
H23         H  0.04721766  0.19910711  0.29395626     0.30000
O24         O  0.03302310  0.21232073  0.28088629    -1.00900
H25         H  0.45332380  0.19773982  0.19973618     0.30000
O26         O  0.46759495  0.21094138  0.21274368    -1.03400
O27         O  0.00331126  0.30117806  0.34090711    -0.80600
O28         O  0.99854596  0.30041212  0.15363116    -0.80200
O29         O  0.08694267  0.24826245  0.30186170    -0.78600
O30         O  0.41281572  0.24748398  0.30073296    -0.81900
O31         O  0.41433699  0.24768338  0.19123765    -0.79800
O32         O  0.08728651  0.24352731  0.19297409    -0.78500
O33         O  0.05137437  0.34228500  0.24311316    -0.80000
O34         O  0.44957493  0.34128029  0.24584208    -0.81900
O35         O  0.08766020  0.30095156  0.24426520    -0.78600
O36         O  0.41417550  0.29928607  0.24515341    -0.81300
O37         O  0.05096230  0.24854158  0.34341086    -0.77000
O38         O  0.05164867  0.24220600  0.15121653    -0.77100
O39         O  0.45037033  0.24707364  0.14971529    -0.76700
O40         O  0.44880132  0.24825535  0.34228083    -0.80200
O41         O  0.00512384  0.33968960  0.30195205    -0.79600
O42         O  0.99681691  0.33924240  0.19233621    -0.78000
Eu43       Eu  0.00078294  0.24623440  0.31434338     2.39800
Eu44       Eu  0.00080596  0.24529916  0.17974478     2.39600
Eu45       Eu  0.06364446  0.24618209  0.24722491     2.38400
Eu46       Eu  0.43714030  0.24459496  0.24645714     2.39900
Eu47       Eu  0.00092865  0.31309958  0.24712756     2.39800
O48         O  0.46869392  0.27774721  0.21348666    -0.92400
O49         O  0.03251791  0.27943079  0.28046046    -0.91300
C50         C  0.00551440  0.33126577  0.33220506     1.02800
C51         C  0.99659787  0.33056389  0.16218971     1.01500
C52         C  0.07966353  0.24990328  0.33230494     1.00900
C53         C  0.42006023  0.24940175  0.33118461     1.02900
C54         C  0.42173240  0.24912184  0.16073777     1.01800
C55         C  0.08035022  0.24149688  0.16251209     1.00700
C56         C  0.08024416  0.33138767  0.24199253     1.00700
C57         C  0.42094110  0.32987209  0.24473905     1.03300
H58         H  0.04616664  0.29231125  0.19950025     0.30700
O59         O  0.03254703  0.27925809  0.21325852    -1.04500
H60         H  0.45456834  0.29253594  0.29273327     0.32800
O61         O  0.46812620  0.27883495  0.27958599    -1.07100
N62         N  0.01059512  0.35647369  0.35734114    -0.03000
C63         C  0.01492665  0.35280819  0.39031345    -0.00400
C64         C  0.02714397  0.38045933  0.40445179    -0.23300
C65         C  0.02905166  0.40290713  0.38124831    -0.23500
C66         C  0.01748512  0.38894316  0.35323650    -0.00500
H67         H  0.03289233  0.38446477  0.42969545     0.13300
H68         H  0.03619820  0.42782097  0.38505538     0.13300
N69         N  0.50503137  0.13546861  0.35706266    -0.03000
C70         C  0.00265591  0.10235385  0.35411588    -0.00400
C71         C  0.00379314  0.08672395  0.38357038    -0.23300
C72         C  0.00274867  0.10927701  0.40640890    -0.23500
C73         C  0.00117106  0.13886879  0.39106062    -0.00500
H74         H  0.00491836  0.06100311  0.38836246     0.13300
H75         H  0.00307756  0.10419229  0.43209938     0.13300
N76         N  0.99232751  0.35564025  0.13691909    -0.03000
C77         C  0.98664611  0.35151347  0.10418514    -0.00400
C78         C  0.97648142  0.37985206  0.08979558    -0.23300
C79         C  0.97763473  0.40297887  0.11238333    -0.23500
C80         C  0.98832441  0.38869647  0.14057755    -0.00500
H81         H  0.97042067  0.38387624  0.06463560     0.13300
H82         H  0.97239108  0.42828061  0.10810766     0.13300
O83         O  0.99715212  0.05055308  0.15982616    -0.79700
O84         O  0.00076408  0.05051529  0.33168313    -0.81200
O85         O  0.44493461  0.08857212  0.24932442    -0.78200
O86         O  0.05496991  0.09063658  0.24263047    -0.76600
O87         O  0.09342359  0.05154563  0.24170125    -0.78400
O88         O  0.40619633  0.04971885  0.24989922    -0.79400
O89         O  0.00219257  0.09282338  0.29683741    -0.80700
O90         O  0.99390553  0.09187215  0.19599885    -0.81000
Eu91       Eu  0.00011674  0.06386704  0.24630400     2.39200
O92         O  0.03341232  0.02960685  0.27732852    -0.88500
O93         O  0.46713754  0.02775245  0.21555935    -0.92100
C94         C  0.99372794  0.08077482  0.16727256     1.02600
C95         C  0.00179022  0.08117267  0.32537209     1.02400
C96         C  0.41477666  0.07990872  0.25059477     1.02400
C97         C  0.08507874  0.08179621  0.24091683     1.00200
H98         H  0.45305298  0.04179996  0.29326521     0.30000
O99         O  0.46616962  0.02881756  0.27891013    -1.00900
H100        H  0.04660584  0.04347115  0.19933474     0.30000
O101        O  0.03365985  0.03042918  0.21374278    -1.03400
O102        O  0.00770625  0.44151509  0.33416532    -0.80600
O103        O  0.99722950  0.44119908  0.16033089    -0.80200
O104        O  0.40515361  0.49157388  0.29891084    -0.78600
O105        O  0.09750273  0.50202468  0.29661584    -0.81900
O106        O  0.09822267  0.49495989  0.19662790    -0.79800
O107        O  0.40535797  0.50102823  0.19701776    -0.78500
O108        O  0.44500776  0.40145552  0.24694057    -0.80000
O109        O  0.05651248  0.40290716  0.24384210    -0.81900
O110        O  0.40640767  0.44035979  0.24605152    -0.78600
O111        O  0.09520755  0.44181747  0.24467319    -0.81300
O112        O  0.44663460  0.49116109  0.33502054    -0.77000
O113        O  0.44637448  0.49944989  0.16032011    -0.77100
O114        O  0.05606196  0.49221312  0.16167035    -0.76700
O115        O  0.05599160  0.50180135  0.33265756    -0.80200
O116        O  0.00674132  0.40022414  0.29775322    -0.79600
O117        O  0.99857750  0.39980759  0.19651856    -0.78000
Eu118      Eu  0.00157813  0.49571674  0.30975089     2.39800
Eu119      Eu  0.00129434  0.49560385  0.18461694     2.39600
Eu120      Eu  0.43327173  0.49527476  0.24804524     2.38400
Eu121      Eu  0.06877928  0.49702459  0.24638531     2.39900
Eu122      Eu  0.00172552  0.42880159  0.24721302     2.39800
O123        O  0.03505189  0.46268867  0.21541101    -0.92400
O124        O  0.46705032  0.46140552  0.27931709    -0.91300
C125        C  0.00961294  0.41112832  0.32647607     1.02800
C126        C  0.99582885  0.41073853  0.16776949     1.01500
C127        C  0.41617383  0.48951948  0.32763248     1.00900
C128        C  0.08631484  0.50431166  0.32524454     0.99300
C129        C  0.08669724  0.49210146  0.16825462     1.01800
C130        C  0.41621390  0.50254004  0.16812807     1.00700
C131        C  0.41483216  0.41007972  0.24598461     1.00700
C132        C  0.08660985  0.41158871  0.24335062     1.03300
H133        H  0.45260243  0.44908320  0.20193608     0.30700
O134        O  0.46641011  0.46183140  0.21577339    -1.04500
H135        H  0.04987607  0.45039468  0.29183574     0.32800
O136        O  0.03568147  0.46309598  0.27834071    -1.07100
N137        N  0.11049157  0.10663633  0.23571044    -0.03000
C138        C  0.10709149  0.13952166  0.23065040    -0.00400
C139        C  0.13497224  0.15311814  0.21839036    -0.23300
C140        C  0.15728822  0.12967105  0.21722835    -0.23500
C141        C  0.14298597  0.10204473  0.22923879    -0.00500
H142        H  0.13928451  0.17819672  0.21239366     0.13300
H143        H  0.18231281  0.13306668  0.21026299     0.13300
N144        N  0.38960553  0.10501199  0.25528219    -0.03000
C145        C  0.39345823  0.13781148  0.26059640    -0.00400
C146        C  0.36584389  0.15167456  0.27311791    -0.23300
C147        C  0.34321902  0.12856459  0.27395235    -0.23500
C148        C  0.35707792  0.10082826  0.26173537    -0.00500
H149        H  0.36200061  0.17671146  0.27978237     0.13300
H150        H  0.31834298  0.13223721  0.28104552     0.13300
N151        N  0.38941895  0.38470503  0.24363307    -0.03000
C152        C  0.35626628  0.38824077  0.24047971    -0.00400
C153        C  0.34092186  0.35910721  0.23509445    -0.23300
C154        C  0.36343408  0.33623566  0.23619012    -0.23500
C155        C  0.39268245  0.35138947  0.24168357    -0.00500
H156        H  0.31537384  0.35454287  0.23153528     0.13300
H157        H  0.35856152  0.31064643  0.23344314     0.13300
N158        N  0.11166146  0.38629433  0.23930174    -0.03000
C159        C  0.10768715  0.35329900  0.23499904    -0.00400
C160        C  0.13570788  0.33885708  0.22409409    -0.23300
C161        C  0.15847460  0.36179575  0.22302340    -0.23500
C162        C  0.14436579  0.39013063  0.23362341    -0.00500
H163        H  0.13967050  0.31358826  0.21844916     0.13300
H164        H  0.18354252  0.35765774  0.21665019     0.13300
N165        N  0.36180789  0.50506338  0.13692180    -0.03000
C166        C  0.39447187  0.51057883  0.14109767    -0.00400
C167        C  0.40879285  0.52229896  0.11332421    -0.23300
C168        C  0.38610561  0.52242353  0.09026467    -0.23500
C169        C  0.35808713  0.51074899  0.10409759    -0.00500
H170        H  0.43391857  0.52869399  0.10965384     0.13300
H171        H  0.39019667  0.52901859  0.06525076     0.13300
O172        O  0.19522781  0.08256792  0.24024434    -0.79700
O173        O  0.19672576  0.40957692  0.24234089    -0.81200
O174        O  0.15814984  0.49558214  0.19187432    -0.78200
O175        O  0.15755511  0.50009396  0.30161861    -0.76600
O176        O  0.19598910  0.50052712  0.34073142    -0.78400
O177        O  0.19691650  0.49539928  0.15313546    -0.79400
O178        O  0.15562053  0.44609697  0.24350954    -0.80700
O179        O  0.15374814  0.04645172  0.24008398    -0.81000
Eu180      Eu  0.18424465  0.49707436  0.24680993     2.39200
O181        O  0.21693537  0.46470936  0.28075889    -0.88500
O182        O  0.21661186  0.02809169  0.21254972    -0.92100
C183        C  0.16484070  0.07510123  0.23761342     1.02600
C184        C  0.16641381  0.41726505  0.24078582     1.02400
C185        C  0.16668744  0.49473722  0.16172153     1.02400
C186        C  0.16589810  0.50155892  0.33186646     1.00200
H187        H  0.20535658  0.45171815  0.19974593     0.30000
O188        O  0.21822090  0.46542085  0.21357154    -1.00900
H189        H  0.20274789  0.04266401  0.29274236     0.30000
O190        O  0.21593981  0.02828201  0.27986870    -1.03400
O191        O  0.30451827  0.40986101  0.24594023    -0.80600
O192        O  0.30462755  0.08191360  0.25131690    -0.80200
O193        O  0.25513101  0.44560261  0.15153469    -0.78600
O194        O  0.24689482  0.44544690  0.34306245    -0.81900
O195        O  0.25363374  0.04672822  0.34206339    -0.79800
O196        O  0.25324289  0.04734504  0.15077352    -0.78500
O197        O  0.34505848  0.49978813  0.19241528    -0.80000
O198        O  0.34486971  0.49266459  0.30248539    -0.81900
O199        O  0.30661791  0.49825839  0.15336335    -0.78600
O200        O  0.30577234  0.49266239  0.34093992    -0.81300
O201        O  0.25399295  0.40974273  0.19315801    -0.77000
O202        O  0.25402341  0.08324208  0.19241924    -0.77100
O203        O  0.25139357  0.08288163  0.30069533    -0.76700
O204        O  0.24681383  0.40934371  0.30157037    -0.80200
O205        O  0.34659043  0.44505997  0.24399846    -0.79600
O206        O  0.34563298  0.04515604  0.25199958    -0.78000
Eu207      Eu  0.25054705  0.43388349  0.24736361     2.39800
Eu208      Eu  0.24981108  0.05873833  0.24640131     2.39600
Eu209      Eu  0.25189851  0.49658995  0.17991849     2.38400
Eu210      Eu  0.25086081  0.49608999  0.31452710     2.39900
Eu211      Eu  0.31851153  0.49573399  0.24754506     2.39800
O212        O  0.28277392  0.02683870  0.27945014    -0.92400
O213        O  0.28447990  0.46448306  0.21410071    -0.91300
C214        C  0.33502593  0.41651447  0.24399666     1.02800
C215        C  0.33490059  0.07402390  0.25386596     1.01500
C216        C  0.25601810  0.41685304  0.16270183     1.00900
C217        C  0.24502590  0.41670783  0.33202196     1.02900
C218        C  0.25403985  0.07557118  0.33106141     1.01800
C219        C  0.25546680  0.07603180  0.16194613     1.00700
C220        C  0.33665946  0.50016760  0.16210232     1.00700
C221        C  0.33602506  0.49168838  0.33259643     1.03300
H222        H  0.29743773  0.04131625  0.20118185     0.30700
O223        O  0.28363194  0.02734205  0.21374646    -1.04500
H224        H  0.29717643  0.44959148  0.29418085     0.32800
O225        O  0.28438524  0.46402713  0.28102901    -1.07100
N226        N  0.14049811  0.50638244  0.35677502    -0.03000
C227        C  0.14374243  0.51064457  0.38979762    -0.00400
C228        C  0.11540220  0.52124070  0.40384670    -0.23300
C229        C  0.09311398  0.52240949  0.38052695    -0.23500
C230        C  0.10785548  0.51201166  0.35245857    -0.00500
H231        H  0.11081636  0.52625169  0.42910960     0.13300
H232        H  0.06787790  0.52834675  0.38427026     0.13300
N233        N  0.36095652  0.48756558  0.35807978    -0.03000
C234        C  0.39399275  0.48304616  0.35484275    -0.00400
C235        C  0.40799508  0.47304743  0.38340212    -0.23300
C236        C  0.38470214  0.47280411  0.40578640    -0.23500
C237        C  0.35660236  0.48287311  0.39091139    -0.00500
H238        H  0.43321007  0.46769039  0.38802010     0.13300
H239        H  0.38847537  0.46749042  0.43110513     0.13300
N240        N  0.14125094  0.49142906  0.13657387    -0.03000
C241        C  0.14461371  0.48833128  0.10346472    -0.00400
C242        C  0.11565298  0.48110190  0.08852348    -0.23300
C243        C  0.09307695  0.48043445  0.11137083    -0.23500
C244        C  0.10816963  0.48756030  0.14024482    -0.00500
H245        H  0.11093540  0.47755510  0.06302739     0.13300
H246        H  0.06761601  0.47621985  0.10689274     0.13300
O247        O  0.33831131  0.50272982  0.05125996    -0.79700
O248        O  0.16527431  0.49500871  0.05166300    -0.81200
O249        O  0.25214713  0.05196642  0.09042867    -0.78200
O250        O  0.25402558  0.44107410  0.09113065    -0.76600
O251        O  0.25288119  0.40237127  0.05233751    -0.78400
O252        O  0.25560025  0.09054469  0.05156981    -0.79400
O253        O  0.20128284  0.49343349  0.09311864    -0.80700
O254        O  0.30267929  0.49955269  0.09303456    -0.81000
Eu255      Eu  0.25210151  0.49631983  0.06470570     2.39200
O256        O  0.21995968  0.46385180  0.03069066    -0.88500
O257        O  0.28334593  0.03050696  0.02989471    -0.92100
C258        C  0.33112091  0.50342290  0.08184548     1.02600
C259        C  0.17251301  0.49300783  0.08198743     1.02400
C260        C  0.25468278  0.08205114  0.08180804     1.02400
C261        C  0.25406198  0.41082702  0.08257417     1.00200
H262        H  0.20664058  0.04363034  0.04420105     0.30000
O263        O  0.22025446  0.03064612  0.03038566    -1.00900
H264        H  0.29810903  0.44995194  0.04387411     0.30000
O265        O  0.28376444  0.46294402  0.03082436    -1.03400
O266        O  0.16288044  0.50061218  0.44220044    -0.80600
O267        O  0.33619505  0.49271024  0.44282192    -0.80200
O268        O  0.19947846  0.09245225  0.49247663    -0.78600
O269        O  0.19919555  0.40051564  0.50070533    -0.81900
O270        O  0.29955514  0.40030754  0.49508658    -0.79800
O271        O  0.30071460  0.09232087  0.49566949    -0.78500
O272        O  0.25330425  0.05121292  0.40247416    -0.80000
O273        O  0.24718655  0.44127489  0.40346836    -0.81900
O274        O  0.25215535  0.08991443  0.44134043    -0.78600
O275        O  0.24789660  0.40268568  0.44239168    -0.81300
O276        O  0.16382350  0.05072429  0.49422065    -0.77000
O277        O  0.33640567  0.05064651  0.49240084    -0.77100
O278        O  0.33527963  0.44205030  0.49543352    -0.76700
O279        O  0.16358894  0.44220743  0.49800954    -0.80200
O280        O  0.19950241  0.50165714  0.40115500    -0.79600
O281        O  0.30031644  0.49175676  0.40119224    -0.78000
Eu282      Eu  0.18673536  0.49676797  0.49672127     2.39800
Eu283      Eu  0.31211188  0.49685923  0.49714213     2.39600
Eu284      Eu  0.24993695  0.06352336  0.49635583     2.38400
Eu285      Eu  0.24948692  0.42957725  0.49729246     2.39900
Eu286      Eu  0.24976485  0.49622203  0.42992080     2.39800
O287        O  0.28123600  0.46324410  0.46402096    -0.92400
O288        O  0.21848051  0.02949526  0.46305474    -0.91300
C289        C  0.17065695  0.50323977  0.41192182     1.02800
C290        C  0.32901480  0.49014221  0.41241215     1.01500
C291        C  0.17075895  0.08120674  0.49234906     1.00900
C292        C  0.17050329  0.41174539  0.50027810     1.02900
C293        C  0.32821166  0.41153836  0.49389928     1.01800
C294        C  0.32928018  0.08117947  0.49213828     1.00700
C295        C  0.25353118  0.08141094  0.41113893     1.00700
C296        C  0.24678229  0.41111318  0.41214983     1.03300
H297        H  0.29553956  0.04221405  0.44905217     0.30700
O298        O  0.28150285  0.02950452  0.46266920    -1.04500
H299        H  0.20316676  0.44965973  0.45001213     0.32800
O300        O  0.21731581  0.46274996  0.46325042    -1.07100
N301        N  0.25838480  0.10722907  0.10714376    -0.03000
C302        C  0.26369469  0.14003837  0.10336500    -0.00400
C303        C  0.27332704  0.15447236  0.13188000    -0.23300
C304        C  0.27221896  0.13180467  0.15481628    -0.23500
C305        C  0.26216569  0.10352216  0.14020765    -0.00500
H306        H  0.27922744  0.17964856  0.13608314     0.13300
H307        H  0.27731288  0.13601181  0.18016495     0.13300
N308        N  0.25707272  0.38540093  0.10790114    -0.03000
C309        C  0.26023499  0.35219454  0.10441224    -0.00400
C310        C  0.26848081  0.33731212  0.13309645    -0.23300
C311        C  0.26917582  0.36017193  0.15577581    -0.23500
C312        C  0.26118622  0.38899683  0.14097188    -0.00500
H313        H  0.27275324  0.31186324  0.13752524     0.13300
H314        H  0.27400727  0.35576759  0.18113371     0.13300
N315        N  0.24290769  0.38576194  0.38698596    -0.03000
C316        C  0.23781363  0.35291622  0.39089618    -0.00400
C317        C  0.22758315  0.33846161  0.36263755    -0.23300
C318        C  0.22788815  0.36114185  0.33969137    -0.23500
C319        C  0.23833892  0.38939767  0.35400182    -0.00500
H320        H  0.22179865  0.31327984  0.35858650     0.13300
H321        H  0.22216594  0.35694308  0.31448006     0.13300
N322        N  0.25679878  0.10680775  0.38596693    -0.03000
C323        C  0.25988011  0.10332865  0.35279650    -0.00400
C324        C  0.26792441  0.13214318  0.33803137    -0.23300
C325        C  0.26874585  0.15477263  0.36097774    -0.23500
C326        C  0.26072444  0.13987907  0.38972663    -0.00500
H327        H  0.27147211  0.13680512  0.31254617     0.13300
H328        H  0.27325214  0.18020282  0.35660406     0.13300
O329        O  0.99790399  0.15819252  0.05064256    -0.79700
O330        O  0.99493138  0.33139975  0.05177013    -0.81200
O331        O  0.05636048  0.24285584  0.09094692    -0.78200
O332        O  0.44669521  0.24708844  0.08921332    -0.76600
O333        O  0.40826866  0.24726579  0.05011270    -0.78400
O334        O  0.09520380  0.24312757  0.05223313    -0.79400
O335        O  0.99712167  0.29551571  0.09331273    -0.80700
O336        O  0.99696024  0.19431975  0.09218803    -0.81000
Eu337      Eu  0.00128166  0.24507689  0.06417137     2.39200
O338        O  0.46863745  0.27638487  0.02820813    -0.88500
O339        O  0.03475538  0.21421435  0.02978807    -0.92100
C340        C  0.99555026  0.16560897  0.08108239     1.02600
C341        C  0.99367074  0.32412224  0.08224356     1.02400
C342        C  0.08662725  0.24222193  0.08244337     1.02400
C343        C  0.41664806  0.24793397  0.08039870     1.00200
H344        H  0.04761878  0.29107058  0.04523565     0.30000
O345        O  0.03490325  0.27741403  0.03115660    -1.00900
H346        H  0.45304183  0.19987718  0.04150439     0.30000
O347        O  0.46704387  0.21361461  0.02881131    -1.03400
O348        O  0.00399486  0.33371151  0.44258455    -0.80600
O349        O  0.99924870  0.16077749  0.44303254    -0.80200
O350        O  0.09583996  0.29657385  0.49919061    -0.78600
O351        O  0.40346727  0.29702355  0.49505272    -0.81900
O352        O  0.40425462  0.19582819  0.49357520    -0.79800
O353        O  0.09573754  0.19616283  0.49383594    -0.78500
O354        O  0.05493114  0.24746085  0.40363750    -0.80000
O355        O  0.44470701  0.24848007  0.40263431    -0.81900
O356        O  0.09341647  0.24958379  0.44259946    -0.78600
O357        O  0.40608781  0.24798753  0.44151234    -0.81300
O358        O  0.05391111  0.33187281  0.49720733    -0.77000
O359        O  0.05374863  0.16088651  0.49673571    -0.77100
O360        O  0.44575134  0.15981108  0.49174869    -0.76700
O361        O  0.44514643  0.33285153  0.49423629    -0.80200
O362        O  0.00433140  0.29730870  0.40132902    -0.79600
O363        O  0.99971660  0.19599555  0.40098375    -0.78000
Eu364      Eu  0.99942236  0.30895772  0.49657052     2.39800
Eu365      Eu  0.99893982  0.18443309  0.49721449     2.39600
Eu366      Eu  0.06669847  0.24625090  0.49720633     2.38400
Eu367      Eu  0.43263058  0.24680448  0.49642571     2.39900
Eu368      Eu  0.99961009  0.24676456  0.42963734     2.39800
O369        O  0.46622156  0.21492145  0.46316117    -0.92400
O370        O  0.03293861  0.27786849  0.46375585    -0.91300
C371        C  0.00651505  0.32604637  0.41227110     1.02800
C372        C  0.99975090  0.16737720  0.41245251     1.01500
C373        C  0.08442318  0.32519060  0.49882452     1.00900
C374        C  0.41460893  0.32570738  0.49343803     1.02900
C375        C  0.41530878  0.16715579  0.49064927     1.01800
C376        C  0.08432968  0.16757352  0.49444504     1.00700
C377        C  0.08504916  0.24925928  0.41237121     1.00700
C378        C  0.41454229  0.24884558  0.41129483     1.03300
H379        H  0.04598603  0.20116575  0.45018907     0.30700
O380        O  0.03274991  0.21493358  0.46358948    -1.04500
H381        H  0.45331375  0.29299471  0.44899886     0.32800
O382        O  0.46608535  0.27900451  0.46265445    -1.07100
N383        N  0.39128735  0.25153003  0.10553121    -0.03000
C384        C  0.35851656  0.25655726  0.10147350    -0.00400
C385        C  0.34376455  0.26615216  0.12981963    -0.23300
C386        C  0.36619640  0.26555220  0.15291083    -0.23500
C387        C  0.39459199  0.25557038  0.13863502    -0.00500
H388        H  0.31853362  0.27183406  0.13382364     0.13300
H389        H  0.36173803  0.27086973  0.17816502     0.13300
N390        N  0.11201097  0.23944577  0.10782191    -0.03000
C391        C  0.14527335  0.23655425  0.10439002    -0.00400
C392        C  0.16030969  0.23012318  0.13347280    -0.23300
C393        C  0.13750531  0.23030150  0.15618463    -0.23500
C394        C  0.10845720  0.23670429  0.14103341    -0.00500
H395        H  0.18585660  0.22676194  0.13818172     0.13300
H396        H  0.14215111  0.22727885  0.18175927     0.13300
N397        N  0.11048792  0.25251062  0.38721578    -0.03000
C398        C  0.10719424  0.25570852  0.35406857    -0.00400
C399        C  0.13587075  0.26438151  0.33940888    -0.23300
C400        C  0.15836583  0.26519819  0.36238496    -0.23500
C401        C  0.14344139  0.25692514  0.39102817    -0.00500
H402        H  0.14046580  0.26871830  0.31399360     0.13300
H403        H  0.18374030  0.26988263  0.35809374     0.13300
N404        N  0.38914189  0.25209926  0.38613415    -0.03000
C405        C  0.39253068  0.25551501  0.35299675    -0.00400
C406        C  0.36397404  0.26474946  0.33844736    -0.23300
C407        C  0.34145438  0.26572201  0.36150468    -0.23500
C408        C  0.35625739  0.25688895  0.39005577    -0.00500
H409        H  0.35952829  0.26950859  0.31308127     0.13300
H410        H  0.31617073  0.27120010  0.35741338     0.13300
N411        N  0.13912794  0.13593857  0.49203168    -0.03000
C412        C  0.14254217  0.10275046  0.48891388    -0.00400
C413        C  0.11323907  0.08761485  0.48377269    -0.23300
C414        C  0.09047213  0.11027767  0.48480992    -0.23500
C415        C  0.10577793  0.13936450  0.49044155    -0.00500
H416        H  0.10846690  0.06208163  0.48045994     0.13300
H417        H  0.06483107  0.10560670  0.48218636     0.13300
O418        O  0.25552075  0.19227004  0.08340355    -0.79700
O419        O  0.25301073  0.19203295  0.41049111    -0.81200
O420        O  0.19484498  0.15268203  0.49490225    -0.78200
O421        O  0.30521266  0.15264737  0.49524065    -0.76600
O422        O  0.34383348  0.19153359  0.49372339    -0.78400
O423        O  0.15603896  0.19143129  0.49509259    -0.79400
O424        O  0.25343102  0.15027562  0.44620119    -0.80700
O425        O  0.25557257  0.15097217  0.04708785    -0.81000
Eu426      Eu  0.25019889  0.17893078  0.49685819     2.39200
O427        O  0.28351438  0.21286517  0.46530161    -0.88500
O428        O  0.21801779  0.21310241  0.02783901    -0.92100
C429        C  0.25733668  0.16191039  0.07592740     1.02600
C430        C  0.25490826  0.16153553  0.41752940     1.02400
C431        C  0.16458570  0.16124132  0.49440500     1.02400
C432        C  0.33533363  0.16129701  0.49355156     1.00200
H433        H  0.20324486  0.19960835  0.45111566     0.30000
O434        O  0.21633500  0.21268403  0.46539838    -1.00900
H435        H  0.29949291  0.19971733  0.04081114     0.30000
O436        O  0.28553866  0.21281737  0.02744995    -1.03400
O437        O  0.24623225  0.30067739  0.41101558    -0.80600
O438        O  0.25348595  0.30002865  0.08338550    -0.80200
O439        O  0.15380547  0.25037202  0.44742573    -0.78600
O440        O  0.34584486  0.25057425  0.44657447    -0.81900
O441        O  0.34816912  0.24802135  0.04519683    -0.79800
O442        O  0.15534960  0.24371001  0.04787604    -0.78500
O443        O  0.19451608  0.34020429  0.49836382    -0.80000
O444        O  0.30425926  0.33995815  0.49626977    -0.81900
O445        O  0.15598544  0.30129417  0.49975916    -0.78600
O446        O  0.34319505  0.30136341  0.49645068    -0.81300
O447        O  0.19541225  0.24891503  0.41154732    -0.77000
O448        O  0.19751405  0.24224349  0.08303540    -0.77100
O449        O  0.30650485  0.24986134  0.08085875    -0.76700
O450        O  0.30423225  0.24903411  0.41071538    -0.80200
O451        O  0.24571487  0.34218741  0.44708425    -0.79600
O452        O  0.25375871  0.34208686  0.04802198    -0.78000
Eu453      Eu  0.24991999  0.24626052  0.43479605     2.39800
Eu454      Eu  0.25170915  0.24597898  0.05867740     2.39600
Eu455      Eu  0.18264533  0.24622567  0.49761783     2.38400
Eu456      Eu  0.31705444  0.24631753  0.49702365     2.39900
Eu457      Eu  0.24926478  0.31347264  0.49758637     2.39800
O458        O  0.28455964  0.27961193  0.02759394    -0.92400
O459        O  0.21651785  0.27926260  0.46603460    -0.91300
C460        C  0.24421072  0.33109837  0.41834932     1.02800
C461        C  0.25498145  0.33060131  0.07656696     1.01500
C462        C  0.16500638  0.25123762  0.41873721     1.00900
C463        C  0.33467050  0.25127218  0.41784187     1.02900
C464        C  0.33696898  0.25064684  0.07378364     1.01800
C465        C  0.16687742  0.24139165  0.07636479     1.00700
C466        C  0.16438048  0.33157400  0.49938958     1.00700
C467        C  0.33449887  0.33150609  0.49580118     1.03300
H468        H  0.20473123  0.29273576  0.04379179     0.30700
O469        O  0.21768731  0.27994449  0.02911167    -1.04500
H470        H  0.29569483  0.29373578  0.45186614     0.32800
O471        O  0.28292047  0.28001973  0.46576621    -1.07100
N472        N  0.35971006  0.35687042  0.49257112    -0.03000
C473        C  0.35595594  0.38987691  0.48845371    -0.00400
C474        C  0.38443818  0.40462647  0.47939276    -0.23300
C475        C  0.40727523  0.38195926  0.47924612    -0.23500
C476        C  0.39274394  0.35335282  0.48829182    -0.00500
H477        H  0.38868757  0.42994680  0.47444818     0.13300
H478        H  0.43253960  0.38637330  0.47394605     0.13300
N479        N  0.13896109  0.35695642  0.50097366    -0.03000
C480        C  0.14228814  0.39022401  0.50349138    -0.00400
C481        C  0.11291166  0.40547441  0.50772186    -0.23300
C482        C  0.09020320  0.38282972  0.50643101    -0.23500
C483        C  0.10565639  0.35357248  0.50199341    -0.00500
H484        H  0.10806018  0.43105615  0.51055693     0.13300
H485        H  0.06451902  0.38762909  0.50827936     0.13300
N486        N  0.36051828  0.13602547  0.48953818    -0.03000
C487        C  0.39330818  0.13983668  0.48400784    -0.00400
C488        C  0.40752013  0.11150676  0.47356307    -0.23300
C489        C  0.38474781  0.08862121  0.47435745    -0.23500
C490        C  0.35666391  0.10304866  0.48519469    -0.00500
H491        H  0.43261494  0.10736854  0.46729531     0.13300
H492        H  0.38879825  0.06337927  0.46864241     0.13300
N493        N  0.49363493  0.13526382  0.63565450    -0.03000
C494        C  0.98818953  0.10342928  0.63966891    -0.00400
C495        C  0.98064004  0.08835268  0.61088043    -0.23300
C496        C  0.97971322  0.11111375  0.58820135    -0.23500
C497        C  0.98718529  0.14001869  0.60310095    -0.00500
H498        H  0.97747583  0.06279932  0.60628272     0.13300
H499        H  0.97560947  0.10650442  0.56274174     0.13300
O500        O  0.99529554  0.19207111  0.65280808    -0.79700
O501        O  0.00503736  0.19116135  0.84017226    -0.81200
O502        O  0.05024954  0.15097467  0.74230486    -0.78200
O503        O  0.44898506  0.15052203  0.75232478    -0.76600
O504        O  0.41308314  0.19210774  0.75057039    -0.78400
O505        O  0.08584183  0.19278272  0.74431897    -0.79400
O506        O  0.00320490  0.15241192  0.80144286    -0.80700
O507        O  0.99613563  0.15330771  0.69157182    -0.81000
Eu508      Eu  0.99982336  0.17936566  0.74675279     2.39200
O509        O  0.46910110  0.21254520  0.77918000    -0.88500
O510        O  0.03075780  0.21394449  0.71361655    -0.92100
C511        C  0.99469673  0.16187812  0.66138731     1.02600
C512        C  0.00518205  0.16093439  0.83160552     1.02400
C513        C  0.07887990  0.16233528  0.74198474     1.02400
C514        C  0.42028730  0.16175841  0.75365666     1.00200
H515        H  0.04706662  0.19992262  0.79285969     0.30000
O516        O  0.03257903  0.21293003  0.77992215    -1.00900
H517        H  0.45318239  0.19854984  0.69901746     0.30000
O518        O  0.46777123  0.21154335  0.71188625    -1.03400
O519        O  0.99899222  0.30125578  0.84006762    -0.80600
O520        O  0.00217155  0.30203489  0.65264468    -0.80200
O521        O  0.08736393  0.24993436  0.80039916    -0.78600
O522        O  0.41483153  0.24470167  0.79963580    -0.81900
O523        O  0.41304539  0.25031869  0.69195645    -0.79800
O524        O  0.08672341  0.24339976  0.69211202    -0.78500
O525        O  0.04937741  0.34327803  0.75005513    -0.80000
O526        O  0.44970468  0.34187743  0.74813741    -0.81900
O527        O  0.08563287  0.30197354  0.74939127    -0.78600
O528        O  0.41413821  0.30007723  0.74773522    -0.81300
O529        O  0.05159317  0.25071329  0.84213820    -0.77000
O530        O  0.05004000  0.24030772  0.65118490    -0.77100
O531        O  0.44913443  0.24984266  0.65046551    -0.76700
O532        O  0.45045773  0.24365495  0.84137437    -0.80200
O533        O  0.99744867  0.34005637  0.80131643    -0.79600
O534        O  0.00119216  0.34088297  0.69134411    -0.78000
Eu535      Eu  0.00082912  0.24624195  0.81388786     2.39800
Eu536      Eu  0.99941037  0.24686546  0.67932713     2.39600
Eu537      Eu  0.06246397  0.24721431  0.74624946     2.38400
Eu538      Eu  0.43815202  0.24579211  0.74570465     2.39900
Eu539      Eu  0.99938996  0.31391321  0.74623811     2.39800
O540        O  0.46874863  0.27904520  0.71239834    -0.92400
O541        O  0.03104875  0.27995231  0.77932883    -0.91300
C542        C  0.99772609  0.33142737  0.83150365     1.02800
C543        C  0.00247139  0.33233006  0.66113721     1.01500
C544        C  0.08028755  0.25193092  0.83091551     1.00900
C545        C  0.42173643  0.24345193  0.83006394     1.02900
C546        C  0.42051803  0.25240173  0.66157929     1.01800
C547        C  0.07894086  0.23964123  0.66197322     1.00700
C548        C  0.07815769  0.33234624  0.75157017     1.00700
C549        C  0.42098029  0.33063166  0.74892669     1.03300
H550        H  0.04600752  0.29379339  0.69923611     0.30700
O551        O  0.03179904  0.28071673  0.71242004    -1.04500
H552        H  0.45585481  0.29202319  0.79334227     0.32800
O553        O  0.46939194  0.27881183  0.77963237    -1.07100
N554        N  0.99547412  0.35666627  0.85690588    -0.03000
C555        C  0.99410438  0.35304493  0.89023015    -0.00400
C556        C  0.98812440  0.38206298  0.90555656    -0.23300
C557        C  0.98666998  0.40479294  0.88280609    -0.23500
C558        C  0.99195151  0.38984189  0.85344964    -0.00500
H559        H  0.98559008  0.38667077  0.93121347     0.13300
H560        H  0.98313647  0.43027618  0.88764325     0.13300
N561        N  0.50758622  0.13465286  0.85648540    -0.03000
C562        C  0.01306913  0.10256065  0.85299945    -0.00400
C563        C  0.02263866  0.08767274  0.88126299    -0.23300
C564        C  0.02339284  0.11042382  0.90409653    -0.23500
C565        C  0.01421056  0.13909159  0.88968025    -0.00500
H566        H  0.02744223  0.06224594  0.88533858     0.13300
H567        H  0.02877291  0.10599753  0.92934261     0.13300
N568        N  0.00611347  0.35771153  0.63583997    -0.03000
C569        C  0.01026109  0.35406787  0.60279806    -0.00400
C570        C  0.01940069  0.38259252  0.58808387    -0.23300
C571        C  0.01929221  0.40542779  0.61083175    -0.23500
C572        C  0.01025049  0.39080146  0.63941061    -0.00500
H573        H  0.02447292  0.38685233  0.56273957     0.13300
H574        H  0.02410586  0.43076765  0.60646287     0.13300
O575        O  0.99644225  0.05165404  0.66036727    -0.79700
O576        O  0.00280873  0.05084403  0.83281692    -0.81200
O577        O  0.44399332  0.09031933  0.75043173    -0.78200
O578        O  0.05447951  0.09093945  0.74299319    -0.76600
O579        O  0.09310911  0.05204726  0.74305386    -0.78400
O580        O  0.40504267  0.05174743  0.74992983    -0.79400
O581        O  0.00551422  0.09235396  0.79687540    -0.80700
O582        O  0.99446096  0.09328724  0.69614321    -0.81000
Eu583      Eu  0.99941143  0.06455529  0.74634747     2.39200
O584        O  0.03254073  0.03011335  0.77731923    -0.88500
O585        O  0.46585942  0.02946591  0.71492059    -0.92100
C586        C  0.99389238  0.08203506  0.66746578     1.02600
C587        C  0.00610457  0.08112948  0.82554834     1.02400
C588        C  0.41372965  0.08192426  0.75114518     1.02400
C589        C  0.08468361  0.08232190  0.74231549     1.00200
H590        H  0.45249109  0.04311708  0.79353272     0.30000
O591        O  0.46541942  0.03017263  0.77896813    -1.00900
H592        H  0.04580653  0.04392142  0.69962379     0.30000
O593        O  0.03278899  0.03092456  0.71403790    -1.03400
O594        O  0.99706461  0.44214086  0.83227155    -0.80600
O595        O  0.00214048  0.44310515  0.65981671    -0.80200
O596        O  0.40422240  0.49278666  0.79800175    -0.78600
O597        O  0.09560382  0.49945812  0.79742246    -0.81900
O598        O  0.09563782  0.49346161  0.69631376    -0.79800
O599        O  0.40453114  0.50099185  0.69632264    -0.78500
O600        O  0.44497707  0.40222588  0.74868413    -0.80000
O601        O  0.05401681  0.40367471  0.74866641    -0.81900
O602        O  0.40633555  0.44111147  0.74766302    -0.78600
O603        O  0.09276831  0.44248712  0.74927327    -0.81300
O604        O  0.44580888  0.49096863  0.83397522    -0.77000
O605        O  0.44563358  0.50283507  0.65977422    -0.77100
O606        O  0.05430412  0.49475400  0.66002892    -0.76700
O607        O  0.05368433  0.49787391  0.83287320    -0.80200
O608        O  0.99589912  0.40053223  0.79644889    -0.79600
O609        O  0.00354806  0.40148869  0.69570783    -0.78000
Eu610      Eu  0.99910062  0.49709585  0.80940846     2.39800
Eu611      Eu  0.99967803  0.49759985  0.68391345     2.39600
Eu612      Eu  0.43297431  0.49615527  0.74737957     2.38400
Eu613      Eu  0.06676407  0.49753879  0.74679173     2.39900
Eu614      Eu  0.99922726  0.43004658  0.74618084     2.39800
O615        O  0.03275274  0.46432369  0.71514389    -0.92400
O616        O  0.46675663  0.46206623  0.77862094    -0.91300
C617        C  0.99542207  0.41162196  0.82524837     1.02800
C618        C  0.00441546  0.41264044  0.66700340     1.01500
C619        C  0.41526608  0.48997020  0.82667149     1.00900
C620        C  0.08424323  0.49955688  0.82609229     0.99300
C621        C  0.08468931  0.49230474  0.66749588     1.01800
C622        C  0.41529763  0.50439171  0.66754225     1.00700
C623        C  0.41479757  0.41086652  0.74863538     1.00700
C624        C  0.08415759  0.41231581  0.74982077     1.03300
H625        H  0.45189666  0.45002220  0.70152770     0.30700
O626        O  0.46601194  0.46271218  0.71509955    -1.04500
H627        H  0.04569383  0.45048003  0.79246664     0.32800
O628        O  0.03268818  0.46375764  0.77834692    -1.07100
N629        N  0.11013961  0.10765736  0.73963027    -0.03000
C630        C  0.10683134  0.14090139  0.73720097    -0.00400
C631        C  0.13590807  0.15605297  0.73099718    -0.23300
C632        C  0.15855545  0.13327563  0.73066257    -0.23500
C633        C  0.14333625  0.10420705  0.73678604    -0.00500
H634        H  0.14064771  0.18163376  0.72808791     0.13300
H635        H  0.18412338  0.13791273  0.72741311     0.13300
N636        N  0.38860386  0.10736130  0.75504042    -0.03000
C637        C  0.39271859  0.14014843  0.76049428    -0.00400
C638        C  0.36422009  0.15497035  0.76952683    -0.23300
C639        C  0.34094004  0.13267367  0.76748242    -0.23500
C640        C  0.35538450  0.10413047  0.75791212    -0.00500
H641        H  0.36023791  0.18024883  0.77512892     0.13300
H642        H  0.31551038  0.13734341  0.77145684     0.13300
N643        N  0.38936744  0.38555990  0.75084945    -0.03000
C644        C  0.35619470  0.38918956  0.75419776    -0.00400
C645        C  0.34104960  0.36008220  0.76020910    -0.23300
C646        C  0.36364446  0.33718651  0.75917423    -0.23500
C647        C  0.39277521  0.35225199  0.75296477    -0.00500
H648        H  0.31554768  0.35551442  0.76406207     0.13300
H649        H  0.35889024  0.31161554  0.76224923     0.13300
N650        N  0.10933612  0.38714168  0.75380106    -0.03000
C651        C  0.10550624  0.35421931  0.75835469    -0.00400
C652        C  0.13374510  0.33979585  0.76861103    -0.23300
C653        C  0.15654643  0.36264239  0.76889978    -0.23500
C654        C  0.14222115  0.39097387  0.75873456    -0.00500
H655        H  0.13790321  0.31454471  0.77401185     0.13300
H656        H  0.18173572  0.35845267  0.77458484     0.13300
N657        N  0.36039998  0.50606940  0.63656704    -0.03000
C658        C  0.39305030  0.51224272  0.64065229    -0.00400
C659        C  0.40699575  0.52397967  0.61268790    -0.23300
C660        C  0.38425665  0.52314032  0.58968256    -0.23500
C661        C  0.35641823  0.51134509  0.60373430    -0.00500
H662        H  0.43199032  0.53077532  0.60876813     0.13300
H663        H  0.38823316  0.52909997  0.56456631     0.13300
O664        O  0.19518345  0.08305143  0.74383738    -0.79700
O665        O  0.19465322  0.41091711  0.75028854    -0.81200
O666        O  0.15626610  0.49502924  0.69183605    -0.78200
O667        O  0.15598750  0.49954442  0.80205709    -0.76600
O668        O  0.19470410  0.49904726  0.84085927    -0.78400
O669        O  0.19513201  0.49431849  0.65312224    -0.79400
O670        O  0.15330267  0.44717399  0.75048993    -0.80700
O671        O  0.15331312  0.04756078  0.74195055    -0.81000
Eu672      Eu  0.18259005  0.49747602  0.74695424     2.39200
O673        O  0.21635671  0.46592678  0.78027001    -0.88500
O674        O  0.21591040  0.02823940  0.71298010    -0.92100
C675        C  0.16472049  0.07617851  0.74150060     1.02600
C676        C  0.16422178  0.41836657  0.75218388     1.02400
C677        C  0.16488543  0.49376993  0.66165570     1.02400
C678        C  0.16449152  0.49970749  0.83231549     1.00200
H679        H  0.20302787  0.45112695  0.70035635     0.30000
O680        O  0.21620243  0.46538011  0.71339960    -1.00900
H681        H  0.20247005  0.04324207  0.79321257     0.30000
O682        O  0.21543734  0.02893451  0.78004739    -1.03400
O683        O  0.30401210  0.41081710  0.74990219    -0.80600
O684        O  0.30315786  0.08422312  0.74845332    -0.80200
O685        O  0.25258162  0.44658405  0.65092548    -0.78600
O686        O  0.24653906  0.44713434  0.84372961    -0.81900
O687        O  0.25495206  0.04749539  0.84202997    -0.79800
O688        O  0.24447277  0.04634453  0.65017289    -0.78500
O689        O  0.34393299  0.49934970  0.69188803    -0.80000
O690        O  0.34364472  0.49328777  0.80190088    -0.81900
O691        O  0.30507204  0.50024835  0.65315877    -0.78600
O692        O  0.30471611  0.49297828  0.84053896    -0.81300
O693        O  0.25170831  0.41094307  0.69271932    -0.77000
O694        O  0.24677044  0.08226710  0.69170974    -0.77100
O695        O  0.25225347  0.08350183  0.80060433    -0.76700
O696        O  0.24625362  0.41150736  0.80192925    -0.80200
O697        O  0.34618779  0.44594820  0.74815769    -0.79600
O698        O  0.34442494  0.04786629  0.75020833    -0.78000
Eu699      Eu  0.24940776  0.43455875  0.74711525     2.39800
Eu700      Eu  0.24934487  0.05912212  0.74631722     2.39600
Eu701      Eu  0.25012802  0.49706680  0.67973074     2.38400
Eu702      Eu  0.24974581  0.49719548  0.81438495     2.39900
Eu703      Eu  0.31733999  0.49649422  0.74691496     2.39800
O704        O  0.28286821  0.02829256  0.77944528    -0.92400
O705        O  0.28335647  0.46488331  0.71345324    -0.91300
C706        C  0.33467625  0.41742536  0.75025957     1.02800
C707        C  0.33348780  0.07673472  0.75110273     1.01500
C708        C  0.25328651  0.41791694  0.66221694     1.00900
C709        C  0.24483626  0.41849686  0.83246200     1.02900
C710        C  0.25538419  0.07627779  0.83096209     1.01800
C711        C  0.24406058  0.07502930  0.66134614     1.00700
C712        C  0.33528461  0.50098581  0.66171816     1.00700
C713        C  0.33492812  0.49194251  0.83202988     1.03300
H714        H  0.29574153  0.04269792  0.69960617     0.30700
O715        O  0.28269956  0.02837615  0.71265412    -1.04500
H716        H  0.29556113  0.45125627  0.79392419     0.32800
O717        O  0.28282975  0.46539575  0.78040655    -1.07100
N718        N  0.13908959  0.50146161  0.85776575    -0.03000
C719        C  0.14252080  0.50365636  0.89109626    -0.00400
C720        C  0.11322155  0.50823491  0.90637819    -0.23300
C721        C  0.09047990  0.50793473  0.88367049    -0.23500
C722        C  0.10575024  0.50312860  0.85438449    -0.00500
H723        H  0.10843670  0.51083886  0.93199824     0.13300
H724        H  0.06484869  0.51030473  0.88848207     0.13300
N725        N  0.35997140  0.48723264  0.85729794    -0.03000
C726        C  0.39307609  0.48317957  0.85390641    -0.00400
C727        C  0.40711272  0.47232898  0.88215511    -0.23300
C728        C  0.38371550  0.47056019  0.90438651    -0.23500
C729        C  0.35558924  0.48108881  0.88988667    -0.00500
H730        H  0.43236724  0.46706043  0.88663837     0.13300
H731        H  0.38744353  0.46410393  0.92948071     0.13300
N732        N  0.13960474  0.48964716  0.63643587    -0.03000
C733        C  0.14338280  0.48421562  0.60362273    -0.00400
C734        C  0.11513399  0.47380568  0.58930875    -0.23300
C735        C  0.09217954  0.47488318  0.61196785    -0.23500
C736        C  0.10659400  0.48542512  0.64015048    -0.00500
H737        H  0.11106669  0.46766413  0.56417072     0.13300
H738        H  0.06689631  0.46969352  0.60776817     0.13300
O739        O  0.33685539  0.50130151  0.55130148    -0.79700
O740        O  0.16302709  0.49331097  0.55127118    -0.81200
O741        O  0.24732190  0.05103451  0.59005338    -0.78200
O742        O  0.25118251  0.44209960  0.59076134    -0.76600
O743        O  0.25045303  0.40321914  0.55211905    -0.78400
O744        O  0.24727716  0.08986536  0.55138342    -0.79400
O745        O  0.19919937  0.49302246  0.59274591    -0.80700
O746        O  0.30044446  0.50223660  0.59257862    -0.81000
Eu747      Eu  0.24956266  0.49723821  0.56434349     2.39200
O748        O  0.21827822  0.46412026  0.53006954    -0.88500
O749        O  0.28154098  0.02982695  0.52988121    -0.92100
C750        C  0.32928276  0.50386342  0.58166511     1.02600
C751        C  0.17051108  0.49119311  0.58167096     1.02400
C752        C  0.24648837  0.08122851  0.58155809     1.02400
C753        C  0.25125259  0.41183594  0.58226151     1.00200
H754        H  0.20348529  0.04276456  0.54273677     0.30000
O755        O  0.21768966  0.02967246  0.52957390    -1.00900
H756        H  0.29584158  0.45046540  0.54424511     0.30000
O757        O  0.28160181  0.46337477  0.53097963    -1.03400
O758        O  0.16431150  0.49944210  0.94326468    -0.80600
O759        O  0.33598635  0.49076443  0.94212713    -0.80200
O760        O  0.20133231  0.09303679  0.99988462    -0.78600
O761        O  0.20022356  0.40135197  0.00297746    -0.81900
O762        O  0.30145838  0.40068304  0.99445902    -0.79800
O763        O  0.30276690  0.09240413  0.99117128    -0.78500
O764        O  0.25372147  0.05230609  0.90257927    -0.80000
O765        O  0.24678272  0.44222507  0.90399801    -0.81900
O766        O  0.25314113  0.09110573  0.94132495    -0.78600
O767        O  0.24762176  0.40334588  0.94263074    -0.81300
O768        O  0.16512400  0.05162315  0.00018143    -0.77000
O769        O  0.33939024  0.05131352  0.98900850    -0.77100
O770        O  0.33705713  0.44250914  0.99580595    -0.76700
O771        O  0.16386169  0.44266935  0.00223641    -0.80200
O772        O  0.19940511  0.49930033  0.90110364    -0.79600
O773        O  0.29969698  0.49149390  0.90084683    -0.78000
Eu774      Eu  0.18846563  0.49703590  0.99763051     2.39800
Eu775      Eu  0.31363769  0.49713455  0.99695326     2.39600
Eu776      Eu  0.25189933  0.06439642  0.99645324     2.38400
Eu777      Eu  0.25088528  0.42954553  0.99758881     2.39900
Eu778      Eu  0.24967946  0.49700705  0.93020984     2.39800
O779        O  0.28157132  0.46411884  0.96424717    -0.92400
O780        O  0.21899178  0.03145041  0.96313927    -0.91300
C781        C  0.17085490  0.50039230  0.91260743     1.02800
C782        C  0.32841068  0.48867694  0.91177801     1.01500
C783        C  0.17259031  0.08198496  0.00188626     1.00900
C784        C  0.17145091  0.41229695  0.00485241     1.02900
C785        C  0.33017150  0.41196976  0.99411726     1.01800
C786        C  0.33140192  0.08163541  0.98711594     1.00700
C787        C  0.25430975  0.08253094  0.91109039     1.00700
C788        C  0.24628757  0.41205645  0.91250222     1.03300
H789        H  0.29625111  0.04258447  0.94870503     0.30700
O790        O  0.28263627  0.03002326  0.96285162    -1.04500
H791        H  0.20377649  0.44989088  0.95129250     0.32800
O792        O  0.21835116  0.46299554  0.96405492    -1.07100
N793        N  0.24290456  0.10640837  0.60690953    -0.03000
C794        C  0.23951894  0.13950145  0.60352347    -0.00400
C795        C  0.23046500  0.15413135  0.63211495    -0.23300
C796        C  0.22942950  0.13116504  0.65463048    -0.23500
C797        C  0.23820468  0.10262761  0.63980181    -0.00500
H798        H  0.22627696  0.17953375  0.63669930     0.13300
H799        H  0.22424730  0.13535785  0.67995513     0.13300
N800        N  0.25373178  0.38643569  0.60754964    -0.03000
C801        C  0.25628479  0.35319004  0.60405966    -0.00400
C802        C  0.26342659  0.33812295  0.63293051    -0.23300
C803        C  0.26437252  0.36091473  0.65557234    -0.23500
C804        C  0.25749673  0.38992159  0.64063277    -0.00500
H805        H  0.26707863  0.31260604  0.63749811     0.13300
H806        H  0.26879296  0.35635359  0.68097680     0.13300
N807        N  0.24259568  0.38695577  0.88717875    -0.03000
C808        C  0.23832575  0.35397640  0.89079091    -0.00400
C809        C  0.23013110  0.33928407  0.86201080    -0.23300
C810        C  0.23086064  0.36200940  0.83919333    -0.23500
C811        C  0.23919862  0.39066809  0.85407203    -0.00500
H812        H  0.22556980  0.31391549  0.85752929     0.13300
H813        H  0.22680586  0.35755376  0.81372732     0.13300
N814        N  0.25791019  0.10776220  0.88569054    -0.03000
C815        C  0.26172780  0.10397472  0.85261245    -0.00400
C816        C  0.27034148  0.13256578  0.83773152    -0.23300
C817        C  0.27044297  0.15549361  0.86041899    -0.23500
C818        C  0.26180267  0.14086943  0.88913103    -0.00500
H819        H  0.27466938  0.13684620  0.81229416     0.13300
H820        H  0.27505413  0.18088275  0.85591884     0.13300
O821        O  0.99525983  0.16034880  0.55113219    -0.79700
O822        O  0.00212236  0.33360177  0.55064674    -0.81200
O823        O  0.05437887  0.24224863  0.59064006    -0.78200
O824        O  0.44524018  0.24896529  0.59034607    -0.76600
O825        O  0.40653769  0.24976944  0.55150272    -0.78400
O826        O  0.09327166  0.24241904  0.55195347    -0.79400
O827        O  0.00299295  0.29773530  0.59233953    -0.80700
O828        O  0.99445599  0.19628099  0.59271330    -0.81000
Eu829      Eu  0.99923660  0.24671718  0.56426330     2.39200
O830        O  0.46711650  0.27785384  0.52951065    -0.88500
O831        O  0.03278459  0.21462760  0.53084780    -0.92100
C832        C  0.99310189  0.16759555  0.58151921     1.02600
C833        C  0.00415640  0.32644796  0.58111008     1.02400
C834        C  0.08463458  0.24113940  0.58210021     1.02400
C835        C  0.41508982  0.25036147  0.58170465     1.00200
H836        H  0.04642490  0.29138811  0.54366422     0.30000
O837        O  0.03280704  0.27794857  0.53031909    -1.00900
H838        H  0.45239689  0.20112902  0.54304540     0.30000
O839        O  0.46607724  0.21495398  0.53008140    -1.03400
O840        O  0.00075382  0.33151455  0.94223424    -0.80600
O841        O  0.00628936  0.15907653  0.94201788    -0.80200
O842        O  0.09701743  0.29746929  0.00188064    -0.78600
O843        O  0.40536052  0.29653532  0.99325417    -0.81900
O844        O  0.40523390  0.19564058  0.99057899    -0.79800
O845        O  0.09764747  0.19585835  0.99925621    -0.78500
O846        O  0.05623562  0.24881246  0.90259460    -0.80000
O847        O  0.44613935  0.24473593  0.90134728    -0.81900
O848        O  0.09490593  0.24900284  0.94149651    -0.78600
O849        O  0.40740684  0.24485752  0.94008701    -0.81300
O850        O  0.05550185  0.33359619  0.00205472    -0.77000
O851        O  0.05620438  0.15974309  0.00124423    -0.77100
O852        O  0.44644987  0.15928429  0.98782790    -0.76700
O853        O  0.44734394  0.33193862  0.99277739    -0.80200
O854        O  0.99855331  0.29604882  0.90032118    -0.79600
O855        O  0.00597342  0.19519220  0.90057918    -0.78000
Eu856      Eu  0.00162374  0.30829275  0.99720198     2.39800
Eu857      Eu  0.00170092  0.18288699  0.99638476     2.39600
Eu858      Eu  0.06893642  0.24641803  0.99707046     2.38400
Eu859      Eu  0.43421896  0.24581542  0.99478301     2.39900
Eu860      Eu  0.00176660  0.24566330  0.92946135     2.39800
O861        O  0.46808216  0.21367888  0.96189835    -0.92400
O862        O  0.03519263  0.27789746  0.96331751    -0.91300
C863        C  0.99861083  0.32474484  0.91166124     1.02800
C864        C  0.00796900  0.16646103  0.91159697     1.01500
C865        C  0.08593049  0.32619860  0.00422646     1.00900
C866        C  0.41671254  0.32520156  0.99209232     1.02900
C867        C  0.41608611  0.16712144  0.98620275     1.01800
C868        C  0.08660961  0.16721774  0.00228675     1.00700
C869        C  0.08635409  0.24985817  0.91121994     1.00700
C870        C  0.41584528  0.24446451  0.90989870     1.03300
H871        H  0.04964150  0.20086025  0.95057917     0.30700
O872        O  0.03562717  0.21435759  0.96349588    -1.04500
H873        H  0.45542130  0.29142024  0.94738494     0.32800
O874        O  0.46816131  0.27748425  0.96113057    -1.07100
N875        N  0.38984434  0.25467446  0.60686896    -0.03000
C876        C  0.35704268  0.25976857  0.60294470    -0.00400
C877        C  0.34285789  0.27149726  0.63076915    -0.23300
C878        C  0.36568688  0.27178309  0.65366224    -0.23500
C879        C  0.39364027  0.26022275  0.63961796    -0.00500
H880        H  0.31772678  0.27772727  0.63461953     0.13300
H881        H  0.36171221  0.27823132  0.67873938     0.13300
N882        N  0.10988288  0.23663829  0.60729807    -0.03000
C883        C  0.14286389  0.23193794  0.60366311    -0.00400
C884        C  0.15713768  0.22154180  0.63192935    -0.23300
C885        C  0.13421568  0.22151408  0.65467029    -0.23500
C886        C  0.10603337  0.23190242  0.64017504    -0.00500
H887        H  0.18238708  0.21628667  0.63621514     0.13300
H888        H  0.13830296  0.21620038  0.67996103     0.13300
N889        N  0.11153791  0.25369350  0.88589731    -0.03000
C890        C  0.10798181  0.25763937  0.85277070    -0.00400
C891        C  0.13665920  0.26641380  0.83817553    -0.23300
C892        C  0.15929849  0.26671336  0.86113525    -0.23500
C893        C  0.14448418  0.25790547  0.88971583    -0.00500
H894        H  0.14117712  0.27094661  0.81280707     0.13300
H895        H  0.18467389  0.27150248  0.85689166     0.13300
N896        N  0.39019887  0.24280118  0.88467447    -0.03000
C897        C  0.39340929  0.24068558  0.85142963    -0.00400
C898        C  0.36399466  0.23613363  0.83623512    -0.23300
C899        C  0.34138917  0.23604054  0.85905505    -0.23500
C900        C  0.35685696  0.24085211  0.88821847    -0.00500
H901        H  0.35906329  0.23356402  0.81063765     0.13300
H902        H  0.31574211  0.23337692  0.85443568     0.13300
N903        N  0.14130885  0.13641372  0.00385074    -0.03000
C904        C  0.14534386  0.10367951  0.00904030    -0.00400
C905        C  0.11743346  0.08929772  0.02031804    -0.23300
C906        C  0.09450352  0.11201800  0.02046887    -0.23500
C907        C  0.10856485  0.14012854  0.00929224    -0.00500
H908        H  0.11362486  0.06416699  0.02664149     0.13300
H909        H  0.06944462  0.10792449  0.02689215     0.13300
O910        O  0.24761896  0.19161651  0.58342018    -0.79700
O911        O  0.25385091  0.19312995  0.90964674    -0.81200
O912        O  0.19652948  0.15308103  0.99865880    -0.78200
O913        O  0.30603599  0.15291301  0.99113642    -0.76600
O914        O  0.34464390  0.19184111  0.99072405    -0.78400
O915        O  0.15769555  0.19179776  0.99867408    -0.79400
O916        O  0.25397997  0.15130365  0.94530792    -0.80700
O917        O  0.24733724  0.15012646  0.54732396    -0.81000
Eu918      Eu  0.25125866  0.17941545  0.99610565     2.39200
O919        O  0.28353934  0.21410600  0.96476617    -0.88500
O920        O  0.21718540  0.21304145  0.52837922    -0.92100
C921        C  0.24578990  0.16122114  0.57605542     1.02600
C922        C  0.25571932  0.16263015  0.91670788     1.02400
C923        C  0.16637867  0.16165421  0.99960097     1.02400
C924        C  0.33615436  0.16163259  0.98936286     1.00200
H925        H  0.20357156  0.19994836  0.95058276     0.30000
O926        O  0.21685950  0.21308454  0.96463812    -1.00900
H927        H  0.29727598  0.19916158  0.54324243     0.30000
O928        O  0.28391055  0.21234475  0.52929715    -1.03400
O929        O  0.24720161  0.30192096  0.91094804    -0.80600
O930        O  0.25099896  0.30103813  0.58283213    -0.80200
O931        O  0.15507106  0.25139877  0.94632075    -0.78600
O932        O  0.34722452  0.24504092  0.94504714    -0.81900
O933        O  0.34605557  0.24956884  0.54728066    -0.79800
O934        O  0.15400194  0.24070879  0.54785308    -0.78500
O935        O  0.19606949  0.34079944  0.00143161    -0.80000
O936        O  0.30615104  0.34039428  0.99524647    -0.81900
O937        O  0.15733668  0.30197283  0.00111836    -0.78600
O938        O  0.34495208  0.30164910  0.99441957    -0.81300
O939        O  0.19634010  0.24912502  0.91006472    -0.77000
O940        O  0.19530558  0.24222917  0.58419940    -0.77100
O941        O  0.30471415  0.24967244  0.58362143    -0.76700
O942        O  0.30485711  0.24571786  0.91020798    -0.80200
O943        O  0.24476342  0.34315834  0.94721795    -0.79600
O944        O  0.25088958  0.34298365  0.54743596    -0.78000
Eu945      Eu  0.25034874  0.24726573  0.93415792     2.39800
Eu946      Eu  0.24997022  0.24605945  0.56000583     2.39600
Eu947      Eu  0.18366275  0.24688173  0.99712255     2.38400
Eu948      Eu  0.31841395  0.24684713  0.99532592     2.39900
Eu949      Eu  0.25083818  0.31410451  0.99723317     2.39800
O950        O  0.28280245  0.27929152  0.52857842    -0.92400
O951        O  0.21741108  0.28031779  0.96579090    -0.91300
C952        C  0.24425211  0.33222743  0.91838673     1.02800
C953        C  0.25198063  0.33162774  0.57602048     1.01500
C954        C  0.16605452  0.25187874  0.91745539     1.00900
C955        C  0.33553309  0.24436060  0.91659514     1.02900
C956        C  0.33509283  0.25180081  0.57601283     1.01800
C957        C  0.16493527  0.23936043  0.57662614     1.00700
C958        C  0.16588897  0.33218372  0.00244220     1.00700
C959        C  0.33639642  0.33182682  0.99436948     1.03300
H960        H  0.20252439  0.29279888  0.54420096     0.30700
O961        O  0.21584187  0.27986286  0.52996543    -1.04500
H962        H  0.29710671  0.29441348  0.95007551     0.32800
O963        O  0.28428815  0.28103198  0.96434062    -1.07100
N964        N  0.36183126  0.35711109  0.99208434    -0.03000
C965        C  0.35839633  0.39041077  0.99013543    -0.00400
C966        C  0.38752475  0.40554569  0.98417296    -0.23300
C967        C  0.41016921  0.38271351  0.98316126    -0.23500
C968        C  0.39505489  0.35350693  0.98877210    -0.00500
H969        H  0.39226041  0.43113621  0.98132447     0.13300
H970        H  0.43567216  0.38738673  0.97945988     0.13300
N971        N  0.14066326  0.35733499  0.00712956    -0.03000
C972        C  0.14447428  0.39016537  0.01255059    -0.00400
C973        C  0.11639899  0.40419130  0.02382325    -0.23300
C974        C  0.09354387  0.38126272  0.02355385    -0.23500
C975        C  0.10781626  0.35333006  0.01214479    -0.00500
H976        H  0.11234872  0.42929153  0.02997982     0.13300
H977        H  0.06835656  0.38515535  0.02960057     0.13300
N978        N  0.36132979  0.13664999  0.98352724    -0.03000
C979        C  0.39374638  0.14100006  0.97664948    -0.00400
C980        C  0.40730172  0.11378159  0.96289548    -0.23300
C981        C  0.38455929  0.09064826  0.96335635    -0.23500
C982        C  0.35735205  0.10405191  0.97728767    -0.00500
H983        H  0.43213854  0.11032733  0.95530974     0.13300
H984        H  0.38826735  0.06574575  0.95612082     0.13300
N985        N  0.49626698  0.63383746  0.13517105    -0.03000
C986        C  0.98952316  0.60174193  0.13902454    -0.00400
C987        C  0.98089340  0.58681497  0.11044593    -0.23300
C988        C  0.98056938  0.60950734  0.08751280    -0.23500
C989        C  0.98924025  0.63824807  0.10204413    -0.00500
H990        H  0.97644829  0.56137591  0.10621093     0.13300
H991        H  0.97572444  0.60501342  0.06216498     0.13300
O992        O  0.99740733  0.69053177  0.15170285    -0.79700
O993        O  0.00080661  0.69179041  0.33946286    -0.81200
O994        O  0.05170886  0.65131197  0.24208646    -0.78200
O995        O  0.45087227  0.64883803  0.25154087    -0.76600
O996        O  0.41464192  0.69019791  0.25022396    -0.78400
O997        O  0.08727744  0.69318841  0.24433010    -0.79400
O998        O  0.00200257  0.65281494  0.30091863    -0.80700
O999        O  0.99764041  0.65197274  0.19070203    -0.81000
Eu1000     Eu  0.00050419  0.67904538  0.24564003     2.39200
O1001       O  0.46946530  0.71145196  0.27931960    -0.88500
O1002       O  0.03152443  0.71347534  0.21248968    -0.92100
C1003       C  0.99672094  0.66033541  0.16040385     1.02600
C1004       C  0.00171126  0.66151155  0.33112476     1.02400
C1005       C  0.08038878  0.66267886  0.24205455     1.02400
C1006       C  0.42216040  0.65992275  0.25317483     1.00200
H1007       H  0.04635478  0.70050440  0.29258591     0.30000
O1008       O  0.03204447  0.71332915  0.27927130    -1.00900
H1009       H  0.45456572  0.69761078  0.19936965     0.30000
O1010       O  0.46879786  0.71079591  0.21243592    -1.03400
O1011       O  0.00071313  0.80163331  0.33940000    -0.80600
O1012       O  0.99826996  0.80115036  0.15169489    -0.80200
O1013       O  0.08535457  0.75241412  0.30030286    -0.78600
O1014       O  0.41377953  0.74395710  0.30032529    -0.81900
O1015       O  0.41504937  0.74724641  0.19168650    -0.79800
O1016       O  0.08697886  0.74255178  0.19143907    -0.78500
O1017       O  0.05032147  0.84236402  0.24100134    -0.80000
O1018       O  0.44959056  0.84073853  0.24232412    -0.81900
O1019       O  0.08679730  0.80121277  0.24100548    -0.78600
O1020       O  0.41400357  0.79888566  0.24250164    -0.81300
O1021       O  0.04951332  0.75120398  0.34193378    -0.77000
O1022       O  0.05092201  0.74198925  0.14989116    -0.77100
O1023       O  0.45102770  0.74973217  0.15021085    -0.76700
O1024       O  0.44942659  0.74300367  0.34210102    -0.80200
O1025       O  0.00298243  0.84011950  0.30043781    -0.79600
O1026       O  0.99766548  0.84001452  0.19044252    -0.78000
Eu1027     Eu  0.99947145  0.74676362  0.31272030     2.39800
Eu1028     Eu  0.99991752  0.74584551  0.17789985     2.39600
Eu1029     Eu  0.06247807  0.74717924  0.24549476     2.38400
Eu1030     Eu  0.43827367  0.74458814  0.24621991     2.39900
Eu1031     Eu  0.99981978  0.81366205  0.24531620     2.39800
O1032       O  0.46972510  0.77733502  0.21329345    -0.92400
O1033       O  0.03122714  0.78015959  0.27886657    -0.91300
C1034       C  0.00280120  0.83172437  0.33072991     1.02800
C1035       C  0.99710726  0.83137252  0.16028047     1.01500
C1036       C  0.07811650  0.75399063  0.33079139     1.00900
C1037       C  0.42068908  0.74246203  0.33085590     1.02900
C1038       C  0.42230911  0.75027467  0.16135964     1.01800
C1039       C  0.07962261  0.74008200  0.16106844     1.00700
C1040       C  0.07912418  0.83152433  0.23899073     1.00700
C1041       C  0.42095326  0.82942658  0.24065049     1.03300
H1042       H  0.04503792  0.79287269  0.19739434     0.30700
O1043       O  0.03141335  0.77996047  0.21129732    -1.04500
H1044       H  0.45406163  0.79198850  0.29313324     0.32800
O1045       O  0.46818389  0.77875722  0.28006898    -1.07100
N1046       N  0.00685120  0.85701586  0.35599611    -0.03000
C1047       C  0.01161649  0.85349753  0.38896555    -0.00400
C1048       C  0.02170522  0.88189958  0.40329399    -0.23300
C1049       C  0.02183770  0.90450868  0.38034468    -0.23500
C1050       C  0.01158553  0.88988850  0.35213687    -0.00500
H1051       H  0.02730446  0.88625730  0.42851156     0.13300
H1052       H  0.02755176  0.92975728  0.38437356     0.13300
N1053       N  0.50589229  0.63500594  0.35701491    -0.03000
C1054       C  0.00623154  0.60299805  0.35369112    -0.00400
C1055       C  0.01029871  0.58796690  0.38318500    -0.23300
C1056       C  0.00868996  0.61074459  0.40574503    -0.23500
C1057       C  0.00394946  0.63984486  0.39011172    -0.00500
H1058       H  0.01335039  0.56244701  0.38820327     0.13300
H1059       H  0.01054836  0.60613453  0.43146073     0.13300
N1060       N  0.99301511  0.85657708  0.13507234    -0.03000
C1061       C  0.98722927  0.85253733  0.10238048    -0.00400
C1062       C  0.97626805  0.88068342  0.08818237    -0.23300
C1063       C  0.97701411  0.90371801  0.11087555    -0.23500
C1064       C  0.98835131  0.88952954  0.13884963    -0.00500
H1065       H  0.96966966  0.88457213  0.06313569     0.13300
H1066       H  0.97090850  0.92887728  0.10689039     0.13300
O1067       O  0.99820053  0.54969196  0.15984848    -0.79700
O1068       O  0.00250684  0.55073839  0.33239820    -0.81200
O1069       O  0.44591222  0.58872696  0.25036932    -0.78200
O1070       O  0.05617897  0.59086887  0.24436522    -0.76600
O1071       O  0.09509835  0.55225873  0.24421590    -0.78400
O1072       O  0.40703154  0.55011692  0.25164433    -0.79400
O1073       O  0.00361971  0.59264149  0.29689782    -0.80700
O1074       O  0.99626398  0.59147944  0.19558458    -0.81000
Eu1075     Eu  0.00114759  0.56362991  0.24664635     2.39200
O1076       O  0.03417565  0.52937703  0.27806878    -0.88500
O1077       O  0.46729863  0.52782217  0.21588624    -0.92100
C1078       C  0.99553630  0.58016151  0.16687605     1.02600
C1079       C  0.00377613  0.58131245  0.32553701     1.02400
C1080       C  0.41577961  0.58024527  0.25207917     1.02400
C1081       C  0.08649208  0.58246246  0.24359375     1.00200
H1082       H  0.45427162  0.54208916  0.29397692     0.30000
O1083       O  0.46717439  0.52900844  0.27953223    -1.00900
H1084       H  0.04772996  0.54334498  0.19996585     0.30000
O1085       O  0.03485759  0.53023262  0.21438245    -1.03400
O1086       O  0.00363468  0.94202250  0.33207600    -0.80600
O1087       O  0.99695456  0.94198789  0.15875222    -0.80200
O1088       O  0.40365158  0.98955152  0.29711843    -0.78600
O1089       O  0.09573047  0.99937448  0.29621995    -0.81900
O1090       O  0.09602440  0.99297106  0.19496647    -0.79800
O1091       O  0.40456076  0.00059861  0.19616241    -0.78500
O1092       O  0.44472034  0.90117460  0.24474117    -0.80000
O1093       O  0.05444394  0.90273296  0.24201174    -0.81900
O1094       O  0.40590265  0.93988919  0.24312614    -0.78600
O1095       O  0.09320667  0.94151293  0.24314474    -0.81300
O1096       O  0.44502822  0.98991687  0.33336939    -0.77000
O1097       O  0.44579318  0.99919136  0.15969046    -0.77100
O1098       O  0.05470036  0.99327042  0.15870472    -0.76700
O1099       O  0.05419066  0.99989148  0.33227014    -0.80200
O1100       O  0.00204805  0.90043153  0.29614688    -0.79600
O1101       O  0.99752579  0.90047827  0.19480426    -0.78000
Eu1102     Eu  0.00009352  0.99605925  0.30803202     2.39800
Eu1103     Eu  0.00045558  0.99627818  0.18329368     2.39600
Eu1104     Eu  0.43265997  0.99489432  0.24690203     2.38400
Eu1105     Eu  0.06720014  0.99658974  0.24533596     2.39900
Eu1106     Eu  0.99976259  0.92915110  0.24547174     2.39800
O1107       O  0.03344540  0.96282086  0.21406437    -0.92400
O1108       O  0.46661019  0.96157652  0.27850864    -0.91300
C1109       C  0.00471470  0.91158212  0.32479063     1.02800
C1110       C  0.99543993  0.91151609  0.16608563     1.01500
C1111       C  0.41460373  0.98744284  0.32587054     1.00900
C1112       C  0.08461404  0.00152233  0.32495341     0.99300
C1113       C  0.08511032  0.99135258  0.16618532     1.01800
C1114       C  0.41551238  0.00208311  0.16735561     1.00700
C1115       C  0.41448625  0.90964203  0.24304198     1.00700
C1116       C  0.08459921  0.91137024  0.24153321     1.03300
H1117       H  0.45264727  0.94900267  0.20080060     0.30700
O1118       O  0.46627285  0.96179665  0.21476162    -1.04500
H1119       H  0.04749255  0.94986029  0.29053164     0.32800
O1120       O  0.03369961  0.96287519  0.27692973    -1.07100
N1121       N  0.11189689  0.60785033  0.24058616    -0.03000
C1122       C  0.10845019  0.64107818  0.23752863    -0.00400
C1123       C  0.13744016  0.65604366  0.23050234    -0.23300
C1124       C  0.16014638  0.63321574  0.23019419    -0.23500
C1125       C  0.14511656  0.60427481  0.23727001    -0.00500
H1126       H  0.14206777  0.68154734  0.22690103     0.13300
H1127       H  0.18564347  0.63772196  0.22620585     0.13300
N1128       N  0.39087959  0.60558666  0.25654539    -0.03000
C1129       C  0.39504136  0.63838709  0.26123797    -0.00400
C1130       C  0.36714644  0.65306677  0.27206945    -0.23300
C1131       C  0.34408404  0.63050089  0.27210768    -0.23500
C1132       C  0.35808837  0.60209237  0.26172166    -0.00500
H1133       H  0.36329350  0.67837803  0.27751314     0.13300
H1134       H  0.31890373  0.63508515  0.27715214     0.13300
N1135       N  0.38924408  0.88417744  0.23954539    -0.03000
C1136       C  0.35593880  0.88749498  0.23688024    -0.00400
C1137       C  0.34119669  0.85870467  0.22872445    -0.23300
C1138       C  0.36427059  0.83622282  0.22727956    -0.23500
C1139       C  0.39308360  0.85114020  0.23508012    -0.00500
H1140       H  0.31569368  0.85405128  0.22511629     0.13300
H1141       H  0.35994184  0.81083221  0.22262144     0.13300
N1142       N  0.10982304  0.88629023  0.23708146    -0.03000
C1143       C  0.10609977  0.85352605  0.23166329    -0.00400
C1144       C  0.13420741  0.83943509  0.22052626    -0.23300
C1145       C  0.15692522  0.86238160  0.22060400    -0.23500
C1146       C  0.14258331  0.89029460  0.23195580    -0.00500
H1147       H  0.13833106  0.81431995  0.21433175     0.13300
H1148       H  0.18209541  0.85849687  0.21448089     0.13300
N1149       N  0.36076577  0.00559587  0.13652244    -0.03000
C1150       C  0.39368474  0.01004667  0.14036366    -0.00400
C1151       C  0.40803520  0.02161978  0.11256537    -0.23300
C1152       C  0.38509483  0.02316597  0.08990358    -0.23500
C1153       C  0.35695628  0.01207778  0.10389360    -0.00500
H1154       H  0.43329221  0.02699360  0.10856277     0.13300
H1155       H  0.38912713  0.02990258  0.06491265     0.13300
O1156       O  0.19731610  0.58321983  0.24425171    -0.79700
O1157       O  0.19477824  0.90962271  0.24154834    -0.81200
O1158       O  0.15646410  0.99466780  0.19085070    -0.78200
O1159       O  0.15603495  0.99889441  0.30083807    -0.76600
O1160       O  0.19460520  0.99889275  0.33983525    -0.78400
O1161       O  0.19550034  0.99473746  0.15233017    -0.79400
O1162       O  0.15352112  0.94597712  0.24273155    -0.80700
O1163       O  0.15550437  0.54759856  0.24297302    -0.81000
Eu1164     Eu  0.18261784  0.99638901  0.24585787     2.39200
O1165       O  0.21573219  0.96446242  0.27965844    -0.88500
O1166       O  0.21835433  0.52871821  0.21339250    -0.92100
C1167       C  0.16678588  0.57628394  0.24218646     1.02600
C1168       C  0.16443492  0.91725498  0.23988723     1.02400
C1169       C  0.16523878  0.99385003  0.16074247     1.02400
C1170       C  0.16450646  0.99985265  0.33108133     1.00200
H1171       H  0.20408604  0.95095239  0.19879495     0.30000
O1172       O  0.21685131  0.96464983  0.21273690    -1.00900
H1173       H  0.20492876  0.54303976  0.29376491     0.30000
O1174       O  0.21790859  0.52858916  0.28075334    -1.03400
O1175       O  0.30362663  0.90814165  0.24548502    -0.80600
O1176       O  0.30579262  0.58285516  0.25235629    -0.80200
O1177       O  0.25541958  0.94588231  0.15078259    -0.78600
O1178       O  0.24361595  0.94569125  0.34236965    -0.81900
O1179       O  0.25576830  0.54638465  0.34351055    -0.79800
O1180       O  0.25584918  0.54714724  0.15141051    -0.78500
O1181       O  0.34392226  0.99898310  0.19187663    -0.80000
O1182       O  0.34311654  0.99065917  0.30156902    -0.81900
O1183       O  0.30538920  0.99916125  0.15288648    -0.78600
O1184       O  0.30420757  0.99103447  0.34021433    -0.81300
O1185       O  0.25390461  0.90993491  0.19233905    -0.77000
O1186       O  0.25642142  0.58311929  0.19303914    -0.77100
O1187       O  0.25486333  0.58275400  0.30225056    -0.76700
O1188       O  0.24237944  0.90920952  0.30119345    -0.80200
O1189       O  0.34521668  0.94402286  0.24238244    -0.79600
O1190       O  0.34689239  0.54632197  0.25237439    -0.78000
Eu1191     Eu  0.24918368  0.93298655  0.24680529     2.39800
Eu1192     Eu  0.25168502  0.55912770  0.24746447     2.39600
Eu1193     Eu  0.25039782  0.99641785  0.17916024     2.38400
Eu1194     Eu  0.24936995  0.99587087  0.31356261     2.39900
Eu1195     Eu  0.31692309  0.99479298  0.24675364     2.39800
O1196       O  0.28438726  0.52724179  0.28061046    -0.92400
O1197       O  0.28262820  0.96398170  0.21342881    -0.91300
C1198       C  0.33409771  0.91525763  0.24254389     1.02800
C1199       C  0.33605278  0.57511587  0.25450410     1.01500
C1200       C  0.25666025  0.91720238  0.16199447     1.00900
C1201       C  0.24042570  0.91699136  0.33154056     1.02900
C1202       C  0.25719665  0.57521418  0.33261979     1.01800
C1203       C  0.25817515  0.57580750  0.16256758     1.00700
C1204       C  0.33551630  0.00037863  0.16161101     1.00700
C1205       C  0.33442812  0.98955619  0.33168964     1.03300
H1206       H  0.29911928  0.54170290  0.20185905     0.30700
O1207       O  0.28520474  0.52782865  0.21440776    -1.04500
H1208       H  0.29547107  0.94859970  0.29367238     0.32800
O1209       O  0.28287528  0.96318653  0.28048242    -1.07100
N1210       N  0.13929456  0.00415020  0.35621326    -0.03000
C1211       C  0.14321194  0.00991505  0.38894893    -0.00400
C1212       C  0.11500726  0.02063194  0.40312890    -0.23300
C1213       C  0.09199615  0.01948809  0.38044191    -0.23500
C1214       C  0.10636959  0.00852002  0.35237159    -0.00500
H1215       H  0.11104324  0.02710656  0.42819047     0.13300
H1216       H  0.06674559  0.02515070  0.38449172     0.13300
N1217       N  0.35959323  0.98476219  0.35683096    -0.03000
C1218       C  0.39252845  0.97986444  0.35299619    -0.00400
C1219       C  0.40685249  0.96958834  0.38129190    -0.23300
C1220       C  0.38401449  0.97000732  0.40416201    -0.23500
C1221       C  0.35574389  0.98017070  0.38974203    -0.00500
H1222       H  0.43212744  0.96419355  0.38552505     0.13300
H1223       H  0.38831225  0.96538585  0.42948166     0.13300
N1224       N  0.14016592  0.98963469  0.13542456    -0.03000
C1225       C  0.14436212  0.98424558  0.10270083    -0.00400
C1226       C  0.11630080  0.97349341  0.08818701    -0.23300
C1227       C  0.09318061  0.97380646  0.11076528    -0.23500
C1228       C  0.10722743  0.98471200  0.13898086    -0.00500
H1229       H  0.11253559  0.96727062  0.06303972     0.13300
H1230       H  0.06805588  0.96771141  0.10655704     0.13300
O1231       O  0.33763738  0.00290832  0.05128297    -0.79700
O1232       O  0.16447294  0.99357103  0.05071843    -0.81200
O1233       O  0.25486084  0.55143777  0.09110800    -0.78200
O1234       O  0.25531651  0.94173650  0.09049764    -0.76600
O1235       O  0.25539054  0.90295556  0.05174453    -0.78400
O1236       O  0.25492405  0.59033645  0.05242751    -0.79400
O1237       O  0.20067339  0.99244485  0.09210965    -0.80700
O1238       O  0.30148238  0.00247354  0.09274903    -0.81000
Eu1239     Eu  0.25173916  0.99693568  0.06394664     2.39200
O1240       O  0.22012913  0.96410037  0.02996281    -0.88500
O1241       O  0.28273398  0.53017755  0.03040577    -0.92100
C1242       C  0.33009911  0.00489583  0.08171538     1.02600
C1243       C  0.17186751  0.99108793  0.08104420     1.02400
C1244       C  0.25605265  0.58166725  0.08258021     1.02400
C1245       C  0.25627665  0.91146703  0.08199057     1.00200
H1246       H  0.20658492  0.54296019  0.04531066     0.30000
O1247       O  0.22002642  0.52993320  0.03137233    -1.00900
H1248       H  0.29845789  0.95067968  0.04344907     0.30000
O1249       O  0.28405367  0.96360341  0.03036117    -1.03400
O1250       O  0.16270666  0.99985727  0.44128585    -0.80600
O1251       O  0.33596140  0.99055445  0.44192764    -0.80200
O1252       O  0.19809940  0.59238216  0.49283033    -0.78600
O1253       O  0.19876445  0.90113589  0.50163753    -0.81900
O1254       O  0.29956251  0.90047226  0.49085829    -0.79800
O1255       O  0.29929177  0.59244988  0.50238732    -0.78500
O1256       O  0.25337692  0.55107322  0.40384243    -0.80000
O1257       O  0.24599605  0.94129041  0.40263540    -0.81900
O1258       O  0.25284682  0.58994119  0.44257753    -0.78600
O1259       O  0.24567035  0.90253843  0.44142488    -0.81300
O1260       O  0.16210083  0.55086772  0.49421177    -0.77000
O1261       O  0.33564845  0.55141139  0.49757352    -0.77100
O1262       O  0.33576499  0.94173801  0.49426585    -0.76700
O1263       O  0.16196953  0.94203267  0.49937446    -0.80200
O1264       O  0.19922446  0.00173531  0.40017554    -0.79600
O1265       O  0.29987035  0.98989971  0.40044120    -0.78000
Eu1266     Eu  0.18694359  0.99614775  0.49571380     2.39800
Eu1267     Eu  0.31237633  0.99632724  0.49645709     2.39600
Eu1268     Eu  0.24887016  0.56394243  0.49735729     2.38400
Eu1269     Eu  0.24929685  0.92923301  0.49610548     2.39900
Eu1270     Eu  0.24954535  0.99623221  0.42887114     2.39800
O1271       O  0.28072755  0.96348947  0.46337540    -0.92400
O1272       O  0.21827619  0.52958229  0.46377638    -0.91300
C1273       C  0.17036306  0.00281330  0.41099257     1.02800
C1274       C  0.32855269  0.98785057  0.41155656     1.01500
C1275       C  0.16931968  0.58130298  0.49198798     1.00900
C1276       C  0.16988544  0.91184224  0.50272228     1.02900
C1277       C  0.32838231  0.91145163  0.49099820     1.01800
C1278       C  0.32814160  0.58161512  0.50129656     1.00700
C1279       C  0.25438949  0.58122101  0.41248326     1.00700
C1280       C  0.24468119  0.91113456  0.41126179     1.03300
H1281       H  0.29543865  0.54317302  0.45060855     0.30700
O1282       O  0.28112396  0.53021201  0.46372408    -1.04500
H1283       H  0.20271448  0.94948011  0.44902489     0.32800
O1284       O  0.21718545  0.96243503  0.46202383    -1.07100
N1285       N  0.26054645  0.60687601  0.10779980    -0.03000
C1286       C  0.26555564  0.63977831  0.10397829    -0.00400
C1287       C  0.27594877  0.65410799  0.13228006    -0.23300
C1288       C  0.27574666  0.63128647  0.15514249    -0.23500
C1289       C  0.26529030  0.60307524  0.14072160    -0.00500
H1290       H  0.28173067  0.67931674  0.13642976     0.13300
H1291       H  0.28137711  0.63539136  0.18039654     0.13300
N1292       N  0.25982587  0.88610735  0.10736562    -0.03000
C1293       C  0.26341922  0.85295998  0.10400086    -0.00400
C1294       C  0.27146414  0.83814212  0.13277840    -0.23300
C1295       C  0.27138479  0.86097001  0.15546039    -0.23500
C1296       C  0.26327243  0.88966732  0.14047214    -0.00500
H1297       H  0.27543681  0.81267754  0.13736036     0.13300
H1298       H  0.27527533  0.85652825  0.18096089     0.13300
N1299       N  0.23957434  0.88604604  0.38615954    -0.03000
C1300       C  0.23470661  0.85318349  0.39002573    -0.00400
C1301       C  0.22170853  0.83938788  0.36260900    -0.23300
C1302       C  0.21988799  0.86260713  0.34011285    -0.23500
C1303       C  0.23228197  0.89034994  0.35382203    -0.00500
H1304       H  0.21562445  0.81431086  0.35870251     0.13300
H1305       H  0.21226453  0.85895521  0.31532154     0.13300
N1306       N  0.25955339  0.60626456  0.38746430    -0.03000
C1307       C  0.26429736  0.60245147  0.35459772    -0.00400
C1308       C  0.27530334  0.63054549  0.34047436    -0.23300
C1309       C  0.27648772  0.65312207  0.36356645    -0.23500
C1310       C  0.26548685  0.63890524  0.39159087    -0.00500
H1311       H  0.28024593  0.63488738  0.31523722     0.13300
H1312       H  0.28264236  0.67824235  0.35963108     0.13300
O1313       O  0.99716382  0.65868399  0.04952156    -0.79700
O1314       O  0.99655757  0.83289130  0.05011676    -0.81200
O1315       O  0.05549834  0.74214345  0.08960117    -0.78200
O1316       O  0.44616931  0.74774335  0.08992086    -0.76600
O1317       O  0.40738106  0.74946003  0.05123651    -0.78400
O1318       O  0.09468060  0.74334634  0.05124207    -0.79400
O1319       O  0.99589948  0.79634121  0.09124925    -0.80700
O1320       O  0.99655272  0.69447954  0.09133381    -0.81000
Eu1321     Eu  0.00030246  0.74515825  0.06302154     2.39200
O1322       O  0.46780913  0.77683267  0.02967583    -0.88500
O1323       O  0.03381052  0.71429910  0.02869368    -0.92100
C1324       C  0.99521520  0.66579903  0.08009334     1.02600
C1325       C  0.99420151  0.82523975  0.08040802     1.02400
C1326       C  0.08583976  0.74160020  0.08128508     1.02400
C1327       C  0.41603642  0.74968517  0.08141407     1.00200
H1328       H  0.04701617  0.79148855  0.04434640     0.30000
O1329       O  0.03424054  0.77770329  0.03044555    -1.00900
H1330       H  0.45296912  0.69969838  0.04226030     0.30000
O1331       O  0.46663765  0.71365143  0.02940943    -1.03400
O1332       O  0.00451564  0.83346791  0.44143558    -0.80600
O1333       O  0.99903979  0.66184447  0.44190567    -0.80200
O1334       O  0.09568779  0.79722213  0.50028207    -0.78600
O1335       O  0.40373482  0.79733910  0.49324009    -0.81900
O1336       O  0.40304567  0.69601245  0.49860616    -0.79800
O1337       O  0.09519240  0.69685222  0.49139847    -0.78500
O1338       O  0.05409463  0.74997683  0.40228013    -0.80000
O1339       O  0.44440415  0.74458989  0.40246257    -0.81900
O1340       O  0.09289696  0.75124716  0.44102927    -0.78600
O1341       O  0.40571956  0.74410796  0.44127960    -0.81300
O1342       O  0.05442403  0.83361908  0.50058698    -0.77000
O1343       O  0.05349811  0.66116746  0.49471389    -0.77100
O1344       O  0.44465157  0.66007420  0.49933125    -0.76700
O1345       O  0.44529622  0.83337413  0.49200791    -0.80200
O1346       O  0.00201835  0.79768573  0.39978280    -0.79600
O1347       O  0.00048652  0.69682536  0.39961622    -0.78000
Eu1348     Eu  0.99983694  0.80956781  0.49562829     2.39800
Eu1349     Eu  0.99895343  0.68494006  0.49663439     2.39600
Eu1350     Eu  0.06644610  0.74712414  0.49588640     2.38400
Eu1351     Eu  0.43202049  0.74640467  0.49636373     2.39900
Eu1352     Eu  0.99894414  0.74724799  0.42847302     2.39800
O1353       O  0.46549365  0.71414070  0.46302189    -0.92400
O1354       O  0.03288102  0.77862484  0.46219433    -0.91300
C1355       C  0.00522404  0.82623073  0.41093721     1.02800
C1356       C  0.00046747  0.66830876  0.41127128     1.01500
C1357       C  0.08480771  0.82597169  0.50272300     1.00900
C1358       C  0.41482995  0.82602740  0.49076493     1.02900
C1359       C  0.41418312  0.66732886  0.50058077     1.01800
C1360       C  0.08392095  0.66816831  0.49165727     1.00700
C1361       C  0.08427598  0.75160478  0.41084011     1.00700
C1362       C  0.41425780  0.74374124  0.41105548     1.03300
H1363       H  0.04540768  0.70229163  0.44918981     0.30700
O1364       O  0.03212839  0.71588912  0.46271541    -1.04500
H1365       H  0.45306048  0.79157758  0.44891513     0.32800
O1366       O  0.46596362  0.77796174  0.46281218    -1.07100
N1367       N  0.39094145  0.75360246  0.10679000    -0.03000
C1368       C  0.35796190  0.75807478  0.10330654    -0.00400
C1369       C  0.34332765  0.76606056  0.13220790    -0.23300
C1370       C  0.36611372  0.76516855  0.15494458    -0.23500
C1371       C  0.39465917  0.75671196  0.13990539    -0.00500
H1372       H  0.31797348  0.77062819  0.13680919     0.13300
H1373       H  0.36176758  0.76902496  0.18046589     0.13300
N1374       N  0.11094775  0.73693178  0.10658093    -0.03000
C1375       C  0.14372047  0.73093968  0.10290221    -0.00400
C1376       C  0.15751083  0.71954956  0.13103887    -0.23300
C1377       C  0.13456792  0.72051401  0.15382836    -0.23500
C1378       C  0.10683305  0.73216519  0.13940590    -0.00500
H1379       H  0.18250743  0.71291100  0.13518332     0.13300
H1380       H  0.13830977  0.71468876  0.17904710     0.13300
N1381       N  0.10947527  0.75532733  0.38551979    -0.03000
C1382       C  0.10557694  0.76056446  0.35266205    -0.00400
C1383       C  0.13426710  0.76913124  0.33797912    -0.23300
C1384       C  0.15739273  0.76676684  0.36034831    -0.23500
C1385       C  0.14271688  0.75787888  0.38893765    -0.00500
H1386       H  0.13853576  0.77446065  0.31269089     0.13300
H1387       H  0.18290108  0.76988187  0.35563469     0.13300
N1388       N  0.38898166  0.74110103  0.38570440    -0.03000
C1389       C  0.39252377  0.73827139  0.35247799    -0.00400
C1390       C  0.36348770  0.73157564  0.33746000    -0.23300
C1391       C  0.34076656  0.73138697  0.36024851    -0.23500
C1392       C  0.35582192  0.73799605  0.38927227    -0.00500
H1393       H  0.35882802  0.72802779  0.31194658     0.13300
H1394       H  0.31525075  0.72780869  0.35563580     0.13300
N1395       N  0.13836105  0.63636473  0.48985719    -0.03000
C1396       C  0.14161170  0.60316547  0.48658021    -0.00400
C1397       C  0.11266542  0.58855087  0.47869462    -0.23300
C1398       C  0.09017554  0.61161385  0.47811480    -0.23500
C1399       C  0.10531494  0.64024901  0.48606167    -0.00500
H1400       H  0.10790142  0.56312443  0.47476849     0.13300
H1401       H  0.06471258  0.60746614  0.47355533     0.13300
O1402       O  0.25635877  0.69221958  0.08429967    -0.79700
O1403       O  0.25452616  0.69116820  0.41072501    -0.81200
O1404       O  0.19400201  0.65282015  0.49372111    -0.78200
O1405       O  0.30390658  0.65292766  0.49968185    -0.76600
O1406       O  0.34276980  0.69157064  0.49761714    -0.78400
O1407       O  0.15544008  0.69178455  0.49398633    -0.79400
O1408       O  0.25578337  0.65009921  0.44726708    -0.80700
O1409       O  0.25631507  0.65099468  0.04790995    -0.81000
Eu1410     Eu  0.24894367  0.67935901  0.49680735     2.39200
O1411       O  0.28220338  0.71338894  0.46541757    -0.88500
O1412       O  0.21768162  0.71339234  0.02894790    -0.92100
C1413       C  0.25841145  0.66182918  0.07675177     1.02600
C1414       C  0.25756691  0.66090815  0.41848347     1.02400
C1415       C  0.16383355  0.66152602  0.49311423     1.02400
C1416       C  0.33413011  0.66144963  0.49935256     1.00200
H1417       H  0.20243983  0.69933520  0.44983977     0.30000
O1418       O  0.21542838  0.71253605  0.46410744    -1.00900
H1419       H  0.29939951  0.70095436  0.04186746     0.30000
O1420       O  0.28533737  0.71387514  0.02844061    -1.03400
O1421       O  0.24545515  0.80065831  0.40905724    -0.80600
O1422       O  0.25465013  0.80086308  0.08365931    -0.80200
O1423       O  0.15367455  0.75173929  0.44542825    -0.78600
O1424       O  0.34551110  0.74297432  0.44607944    -0.81900
O1425       O  0.34721677  0.75165480  0.04686531    -0.79800
O1426       O  0.15519996  0.74165538  0.04751742    -0.78500
O1427       O  0.19491116  0.84059235  0.49908108    -0.80000
O1428       O  0.30457865  0.84020625  0.49391542    -0.81900
O1429       O  0.15619824  0.80171837  0.49971253    -0.78600
O1430       O  0.34335471  0.80144933  0.49430458    -0.81300
O1431       O  0.19482135  0.74779883  0.40909971    -0.77000
O1432       O  0.19654390  0.74053708  0.08381903    -0.77100
O1433       O  0.30579892  0.75029087  0.08297819    -0.76700
O1434       O  0.30382509  0.74451925  0.41035505    -0.80200
O1435       O  0.24539384  0.84194015  0.44555457    -0.79600
O1436       O  0.25594126  0.84264335  0.04792696    -0.78000
Eu1437     Eu  0.24924395  0.74617509  0.43357316     2.39800
Eu1438     Eu  0.25119813  0.74642627  0.05988980     2.39600
Eu1439     Eu  0.18217696  0.74669458  0.49614564     2.38400
Eu1440     Eu  0.31656153  0.74661426  0.49651335     2.39900
Eu1441     Eu  0.24969405  0.81374862  0.49639064     2.39800
O1442       O  0.28386518  0.78004700  0.02836560    -0.92400
O1443       O  0.21663713  0.77952915  0.46507745    -0.91300
C1444       C  0.24317071  0.83103651  0.41676234     1.02800
C1445       C  0.25717535  0.83130061  0.07651195     1.01500
C1446       C  0.16452744  0.75138264  0.41653073     1.00900
C1447       C  0.33428786  0.74250978  0.41735863     1.02900
C1448       C  0.33617439  0.75259140  0.07564953     1.01800
C1449       C  0.16610865  0.73865355  0.07617352     1.00700
C1450       C  0.16474528  0.83191249  0.50043959     1.00700
C1451       C  0.33476143  0.83163332  0.49317362     1.03300
H1452       H  0.20435935  0.79334949  0.04410356     0.30700
O1453       O  0.21748903  0.78052795  0.02959258    -1.04500
H1454       H  0.29595503  0.79310714  0.44995317     0.32800
O1455       O  0.28291562  0.77996823  0.46421345    -1.07100
N1456       N  0.35992014  0.85690111  0.48905521    -0.03000
C1457       C  0.35603384  0.88985384  0.48484290    -0.00400
C1458       C  0.38441938  0.90462797  0.47552988    -0.23300
C1459       C  0.40726875  0.88191834  0.47489059    -0.23500
C1460       C  0.39287766  0.85335410  0.48434914    -0.00500
H1461       H  0.38867642  0.93002403  0.47121197     0.13300
H1462       H  0.43253080  0.88638015  0.46960363     0.13300
N1463       N  0.13948627  0.85694779  0.50518813    -0.03000
C1464       C  0.14324090  0.88967076  0.51085833    -0.00400
C1465       C  0.11549852  0.90342282  0.52317711    -0.23300
C1466       C  0.09278673  0.88036720  0.52339014    -0.23500
C1467       C  0.10683879  0.85275344  0.51104500    -0.00500
H1468       H  0.11156248  0.92841993  0.52975083     0.13300
H1469       H  0.06776302  0.88400128  0.53022586     0.13300
N1470       N  0.35941010  0.63622805  0.50280395    -0.03000
C1471       C  0.39244563  0.63982182  0.50672345    -0.00400
C1472       C  0.40710487  0.61129395  0.51588056    -0.23300
C1473       C  0.38430712  0.58856783  0.51590460    -0.23500
C1474       C  0.35574619  0.60327395  0.50706272    -0.00500
H1475       H  0.43245385  0.60690377  0.52078973     0.13300
H1476       H  0.38866183  0.56320545  0.52044320     0.13300
N1477       N  0.50747015  0.63577300  0.63645864    -0.03000
C1478       C  0.98626460  0.60433513  0.64050128    -0.00400
C1479       C  0.97526545  0.58999300  0.61250542    -0.23300
C1480       C  0.97525801  0.61272200  0.58954508    -0.23500
C1481       C  0.98619203  0.64088286  0.60360018    -0.00500
H1482       H  0.96952000  0.56479919  0.60854323     0.13300
H1483       H  0.96954039  0.60849188  0.56440404     0.13300
O1484       O  0.99542820  0.69257201  0.65285787    -0.79700
O1485       O  0.00479352  0.69221876  0.83956445    -0.81200
O1486       O  0.05050608  0.65175444  0.74291232    -0.78200
O1487       O  0.45078598  0.65014559  0.75158811    -0.76600
O1488       O  0.41456819  0.69144461  0.74963770    -0.78400
O1489       O  0.08623471  0.69347654  0.74394921    -0.79400
O1490       O  0.00417369  0.65339573  0.80083084    -0.80700
O1491       O  0.99746069  0.65378507  0.69158874    -0.81000
Eu1492     Eu  0.99974881  0.68029235  0.74627236     2.39200
O1493       O  0.46945348  0.71314527  0.77945191    -0.88500
O1494       O  0.03063910  0.71441414  0.71263634    -0.92100
C1495       C  0.99552244  0.66239900  0.66149168     1.02600
C1496       C  0.00591795  0.66199439  0.83096911     1.02400
C1497       C  0.07922225  0.66297991  0.74221907     1.02400
C1498       C  0.42196526  0.66114090  0.75236081     1.00200
H1499       H  0.04635966  0.70105778  0.79235347     0.30000
O1500       O  0.03187251  0.71407154  0.77943392    -1.00900
H1501       H  0.45511794  0.69771819  0.70022300     0.30000
O1502       O  0.46876027  0.71175003  0.71302914    -1.03400
O1503       O  0.99833473  0.80213465  0.83994583    -0.80600
O1504       O  0.99872152  0.80249636  0.65216009    -0.80200
O1505       O  0.08651571  0.74897856  0.79990523    -0.78600
O1506       O  0.41406150  0.74357005  0.80024160    -0.81900
O1507       O  0.41298083  0.74150632  0.69191332    -0.79800
O1508       O  0.08537943  0.74347484  0.69095800    -0.78500
O1509       O  0.04981986  0.84317993  0.74850247    -0.80000
O1510       O  0.44969971  0.84280215  0.74556057    -0.81900
O1511       O  0.08593583  0.80172768  0.74831830    -0.78600
O1512       O  0.41456879  0.80071861  0.74237691    -0.81300
O1513       O  0.05113326  0.75079530  0.84188569    -0.77000
O1514       O  0.04913269  0.74267608  0.64964324    -0.77100
O1515       O  0.44896931  0.74187834  0.65037183    -0.76700
O1516       O  0.45022330  0.74269929  0.84167464    -0.80200
O1517       O  0.99869476  0.84091183  0.80121227    -0.79600
O1518       O  0.99778965  0.84121107  0.69092621    -0.78000
Eu1519     Eu  0.00018822  0.74735740  0.81340291     2.39800
Eu1520     Eu  0.99894211  0.74758777  0.67878767     2.39600
Eu1521     Eu  0.06201132  0.74763624  0.74554481     2.38400
Eu1522     Eu  0.43784626  0.74586378  0.74595369     2.39900
Eu1523     Eu  0.99924456  0.81469046  0.74604298     2.39800
O1524       O  0.46802839  0.77969270  0.71266309    -0.92400
O1525       O  0.03102443  0.78072825  0.77901353    -0.91300
C1526       C  0.99807947  0.83231500  0.83140765     1.02800
C1527       C  0.99779713  0.83269401  0.66067697     1.01500
C1528       C  0.07982968  0.75080450  0.83051652     1.00900
C1529       C  0.42143790  0.74169397  0.83064265     1.02900
C1530       C  0.42028546  0.73979939  0.66145121     1.01800
C1531       C  0.07791018  0.74092084  0.66061973     1.00700
C1532       C  0.07851776  0.83208235  0.75025934     1.00700
C1533       C  0.42125227  0.83137837  0.74237625     1.03300
H1534       H  0.04537586  0.79459464  0.69866063     0.30700
O1535       O  0.03135110  0.78144243  0.71194542    -1.04500
H1536       H  0.45429663  0.79255916  0.79293097     0.32800
O1537       O  0.46845502  0.77951561  0.77971314    -1.07100
N1538       N  0.99561559  0.85757998  0.85678807    -0.03000
C1539       C  0.99339426  0.85400927  0.89002642    -0.00400
C1540       C  0.98638142  0.88287738  0.90521187    -0.23300
C1541       C  0.98536973  0.90560059  0.88243249    -0.23500
C1542       C  0.99178924  0.89065501  0.85329451    -0.00500
H1543       H  0.98282431  0.88734345  0.93077502     0.13300
H1544       H  0.98105124  0.93102004  0.88704225     0.13300
N1545       N  0.50797584  0.63525260  0.85669128    -0.03000
C1546       C  0.01581450  0.60386906  0.85241712    -0.00400
C1547       C  0.02860529  0.58988469  0.87985287    -0.23300
C1548       C  0.03075259  0.61319206  0.90220147    -0.23500
C1549       C  0.01876097  0.64104716  0.88831855    -0.00500
H1550       H  0.03445113  0.56467596  0.88381350     0.13300
H1551       H  0.03814640  0.60953738  0.92706348     0.13300
N1552       N  0.99604544  0.85804866  0.63519952    -0.03000
C1553       C  0.99454264  0.85464430  0.60187674    -0.00400
C1554       C  0.99045699  0.88395136  0.58643430    -0.23300
C1555       C  0.98965201  0.90661448  0.60912998    -0.23500
C1556       C  0.99371610  0.89131140  0.63850671    -0.00500
H1557       H  0.98849530  0.88878068  0.56076474     0.13300
H1558       H  0.98702206  0.93221593  0.60426397     0.13300
O1559       O  0.99651115  0.55213831  0.66003022    -0.79700
O1560       O  0.00362366  0.55159395  0.83375983    -0.81200
O1561       O  0.44573014  0.58980401  0.74868530    -0.78200
O1562       O  0.05486861  0.59119387  0.74376510    -0.76600
O1563       O  0.09371631  0.55252294  0.74543051    -0.78400
O1564       O  0.40691093  0.55111894  0.75059544    -0.79400
O1565       O  0.00516684  0.59273243  0.79717651    -0.80700
O1566       O  0.99488143  0.59329878  0.69653227    -0.81000
Eu1567     Eu  0.99964099  0.56446207  0.74686612     2.39200
O1568       O  0.03252457  0.53033031  0.77841365    -0.88500
O1569       O  0.46662614  0.52946387  0.71529778    -0.92100
C1570       C  0.99370297  0.58244121  0.66767731     1.02600
C1571       C  0.00685307  0.58184897  0.82593529     1.02400
C1572       C  0.41557737  0.58127507  0.75055333     1.02400
C1573       C  0.08517859  0.58273527  0.74395032     1.00200
H1574       H  0.45420297  0.54230043  0.79371850     0.30000
O1575       O  0.46713053  0.52921755  0.77931110    -1.00900
H1576       H  0.04650543  0.54441797  0.70035519     0.30000
O1577       O  0.03340107  0.53126789  0.71454925    -1.03400
O1578       O  0.99730282  0.94267427  0.83206269    -0.80600
O1579       O  0.99667429  0.94327362  0.66020346    -0.80200
O1580       O  0.40371121  0.99257264  0.79724603    -0.78600
O1581       O  0.09558006  0.99942469  0.79621406    -0.81900
O1582       O  0.09462214  0.99220498  0.69500332    -0.79800
O1583       O  0.40294672  0.00044764  0.69640935    -0.78500
O1584       O  0.44459995  0.90295815  0.74614946    -0.80000
O1585       O  0.05357212  0.90335945  0.74877393    -0.81900
O1586       O  0.40568331  0.94162166  0.74516978    -0.78600
O1587       O  0.09240384  0.94208693  0.74868912    -0.81300
O1588       O  0.44536734  0.99268627  0.83313713    -0.77000
O1589       O  0.44450935  0.99989481  0.66042991    -0.77100
O1590       O  0.05294428  0.99476271  0.65927324    -0.76700
O1591       O  0.05375152  0.99721793  0.83168282    -0.80200
O1592       O  0.99546008  0.90095005  0.79641763    -0.79600
O1593       O  0.99780337  0.90119856  0.69537843    -0.78000
Eu1594     Eu  0.99919021  0.99696959  0.80834121     2.39800
Eu1595     Eu  0.99878887  0.99740126  0.68397036     2.39600
Eu1596     Eu  0.43186477  0.99676976  0.74683089     2.38400
Eu1597     Eu  0.06638415  0.99699443  0.74563945     2.39900
Eu1598     Eu  0.99855483  0.92989291  0.74599371     2.39800
O1599       O  0.03219972  0.96349408  0.71422673    -0.92400
O1600       O  0.46624315  0.96302517  0.77745264    -0.91300
C1601       C  0.99541568  0.91219783  0.82513126     1.02800
C1602       C  0.99641772  0.91269425  0.66682945     1.01500
C1603       C  0.41490832  0.99075632  0.82585074     1.00900
C1604       C  0.08429925  0.99890112  0.82494811     0.99300
C1605       C  0.08340941  0.99212972  0.66630384     1.01800
C1606       C  0.41408866  0.00201575  0.66768572     1.00700
C1607       C  0.41439524  0.91144155  0.74504328     1.00700
C1608       C  0.08379248  0.91195416  0.74976643     1.03300
H1609       H  0.45196033  0.95047421  0.70135759     0.30700
O1610       O  0.46569336  0.96331274  0.71516314    -1.04500
H1611       H  0.04543222  0.95028877  0.79155593     0.32800
O1612       O  0.03241602  0.96353973  0.77739685    -1.07100
N1613       N  0.11064476  0.60810706  0.74115715    -0.03000
C1614       C  0.10720617  0.64129460  0.73774385    -0.00400
C1615       C  0.13626453  0.65626485  0.73097010    -0.23300
C1616       C  0.15903107  0.63355691  0.73147572    -0.23500
C1617       C  0.14393744  0.60465823  0.73852243    -0.00500
H1618       H  0.14090594  0.68173339  0.72706512     0.13300
H1619       H  0.18457211  0.63810516  0.72787505     0.13300
N1620       N  0.39047508  0.60657027  0.75448085    -0.03000
C1621       C  0.39433311  0.63953267  0.75864235    -0.00400
C1622       C  0.36583967  0.65432769  0.76770136    -0.23300
C1623       C  0.34294903  0.63163239  0.76778152    -0.23500
C1624       C  0.35747426  0.60299483  0.75879777    -0.00500
H1625       H  0.36159321  0.67971033  0.77243763     0.13300
H1626       H  0.31761931  0.63609903  0.77256742     0.13300
N1627       N  0.38931138  0.88600912  0.74146021    -0.03000
C1628       C  0.35628751  0.88951492  0.73691947    -0.00400
C1629       C  0.34199614  0.86090765  0.72751288    -0.23300
C1630       C  0.36498540  0.83829072  0.72742999    -0.23500
C1631       C  0.39335149  0.85304107  0.73691640    -0.00500
H1632       H  0.31677990  0.85644786  0.72222282     0.13300
H1633       H  0.36093607  0.81301006  0.72190450     0.13300
N1634       N  0.10912059  0.88688831  0.75404364    -0.03000
C1635       C  0.10576879  0.85378882  0.75726631    -0.00400
C1636       C  0.13406264  0.83927563  0.76734430    -0.23300
C1637       C  0.15642091  0.86242417  0.76914163    -0.23500
C1638       C  0.14182257  0.89092055  0.75988389    -0.00500
H1639       H  0.13853136  0.81387005  0.77187579     0.13300
H1640       H  0.18162011  0.85829713  0.77468397     0.13300
N1641       N  0.35950902  0.00479058  0.63610186    -0.03000
C1642       C  0.39247371  0.00891631  0.64014632    -0.00400
C1643       C  0.40721217  0.01922970  0.61205699    -0.23300
C1644       C  0.38449483  0.02018355  0.58914695    -0.23500
C1645       C  0.35600765  0.01009563  0.60324546    -0.00500
H1646       H  0.43256152  0.02429919  0.60807936     0.13300
H1647       H  0.38887824  0.02607207  0.56400764     0.13300
O1648       O  0.19606343  0.58362214  0.74580546    -0.79700
O1649       O  0.19401468  0.91098833  0.75082315    -0.81200
O1650       O  0.15500347  0.99417077  0.69100785    -0.78200
O1651       O  0.15581418  0.99871209  0.80139635    -0.76600
O1652       O  0.19469423  0.99847802  0.84008808    -0.78400
O1653       O  0.19391169  0.99390958  0.65238645    -0.79400
O1654       O  0.15258316  0.94711190  0.75215317    -0.80700
O1655       O  0.15421315  0.54804877  0.74334322    -0.81000
Eu1656     Eu  0.18174128  0.99698115  0.74608572     2.39200
O1657       O  0.21659043  0.96614307  0.77879265    -0.88500
O1658       O  0.21723462  0.52858986  0.71400856    -0.92100
C1659       C  0.16554482  0.57669878  0.74335627     1.02600
C1660       C  0.16363496  0.91837539  0.75349429     1.02400
C1661       C  0.16364897  0.99330868  0.66079614     1.02400
C1662       C  0.16445657  0.99898184  0.83159345     1.00200
H1663       H  0.20185631  0.94994682  0.69949846     0.30000
O1664       O  0.21500566  0.96421521  0.71249284    -1.00900
H1665       H  0.20340368  0.54364645  0.79393071     0.30000
O1666       O  0.21635654  0.52936020  0.78076989    -1.03400
O1667       O  0.30374040  0.90984367  0.74405864    -0.80600
O1668       O  0.30526055  0.58297163  0.75005764    -0.80200
O1669       O  0.25448792  0.94628374  0.65023705    -0.78600
O1670       O  0.24577929  0.94670006  0.84223137    -0.81900
O1671       O  0.25453404  0.54730842  0.84349896    -0.79800
O1672       O  0.24564593  0.54785195  0.65146327    -0.78500
O1673       O  0.34272252  0.99880620  0.69126087    -0.80000
O1674       O  0.34348616  0.99388122  0.80091685    -0.81900
O1675       O  0.30388046  0.00050151  0.65256840    -0.78600
O1676       O  0.30464130  0.99344286  0.83957708    -0.81300
O1677       O  0.25147610  0.90991689  0.69142361    -0.77000
O1678       O  0.24790616  0.58376875  0.69306006    -0.77100
O1679       O  0.25393210  0.58324754  0.80196099    -0.76700
O1680       O  0.24621433  0.91018641  0.80103959    -0.80200
O1681       O  0.34525239  0.94594708  0.74316562    -0.79600
O1682       O  0.34647487  0.54664656  0.75201600    -0.78000
Eu1683     Eu  0.24900721  0.93376207  0.74620652     2.39800
Eu1684     Eu  0.25056467  0.55957095  0.74735016     2.39600
Eu1685     Eu  0.24889261  0.99638899  0.67907918     2.38400
Eu1686     Eu  0.24962105  0.99698780  0.81336737     2.39900
Eu1687     Eu  0.31652250  0.99658893  0.74621589     2.39800
O1688       O  0.28360631  0.52814938  0.78043719    -0.92400
O1689       O  0.28215685  0.96518216  0.71318850    -0.91300
C1690       C  0.33423474  0.91714054  0.74226189     1.02800
C1691       C  0.33559603  0.57549156  0.75271219     1.01500
C1692       C  0.25484901  0.91745761  0.66113360     1.00900
C1693       C  0.24417639  0.91786320  0.83142644     1.02900
C1694       C  0.25596685  0.57602467  0.83241277     1.01800
C1695       C  0.24517449  0.57660139  0.66264509     1.00700
C1696       C  0.33412217  0.00062200  0.66114274     1.00700
C1697       C  0.33485601  0.99263202  0.83108419     1.03300
H1698       H  0.29708449  0.54317617  0.70044681     0.30700
O1699       O  0.28393702  0.52887651  0.71344331    -1.04500
H1700       H  0.29584751  0.95022488  0.79279070     0.32800
O1701       O  0.28279141  0.96451247  0.77968689    -1.07100
N1702       N  0.13909994  0.00064187  0.85700714    -0.03000
C1703       C  0.14251987  0.00305563  0.89033531    -0.00400
C1704       C  0.11306885  0.00659516  0.90558506    -0.23300
C1705       C  0.09033826  0.00554122  0.88285118    -0.23500
C1706       C  0.10574140  0.00159589  0.85349396    -0.00500
H1707       H  0.10820832  0.00916245  0.93119227     0.13300
H1708       H  0.06465432  0.00732505  0.88765578     0.13300
N1709       N  0.35996933  0.98822877  0.85640644    -0.03000
C1710       C  0.39299131  0.98391030  0.85299100    -0.00400
C1711       C  0.40724661  0.97333648  0.88119314    -0.23300
C1712       C  0.38413544  0.97253652  0.90366175    -0.23500
C1713       C  0.35590017  0.98271272  0.88913273    -0.00500
H1714       H  0.43249804  0.96788886  0.88550964     0.13300
H1715       H  0.38811961  0.96680208  0.92884262     0.13300
N1716       N  0.13844118  0.99028149  0.63528276    -0.03000
C1717       C  0.14227233  0.98707997  0.60214184    -0.00400
C1718       C  0.11338393  0.98028124  0.58685870    -0.23300
C1719       C  0.09038180  0.98042221  0.60937862    -0.23500
C1720       C  0.10517643  0.98730841  0.63846572    -0.00500
H1721       H  0.10899016  0.97676059  0.56130402     0.13300
H1722       H  0.06488883  0.97677096  0.60458924     0.13300
O1723       O  0.33657953  0.00092396  0.55074018    -0.79700
O1724       O  0.16363665  0.99398834  0.55028400    -0.81200
O1725       O  0.24661833  0.55220540  0.59107330    -0.78200
O1726       O  0.25261561  0.94144613  0.58972113    -0.76600
O1727       O  0.25181267  0.90259831  0.55099714    -0.78400
O1728       O  0.24591114  0.59083400  0.55222198    -0.79400
O1729       O  0.19914168  0.99237479  0.59216614    -0.80700
O1730       O  0.30018400  0.00106820  0.59199389    -0.81000
Eu1731     Eu  0.24970471  0.99629007  0.56337988     2.39200
O1732       O  0.21811898  0.96332808  0.52920319    -0.88500
O1733       O  0.28076242  0.53015931  0.53014087    -0.92100
C1734       C  0.32895800  0.00311007  0.58110108     1.02600
C1735       C  0.17047281  0.99185669  0.58078357     1.02400
C1736       C  0.24544977  0.58239431  0.58247619     1.02400
C1737       C  0.25309980  0.91125869  0.58117558     1.00200
H1738       H  0.20241409  0.54345291  0.54390023     0.30000
O1739       O  0.21681437  0.53044986  0.53086641    -1.00900
H1740       H  0.29596575  0.94947617  0.54298739     0.30000
O1741       O  0.28169500  0.96254747  0.52990058    -1.03400
O1742       O  0.16448062  0.99932262  0.94253765    -0.80600
O1743       O  0.33609958  0.99169084  0.94131018    -0.80200
O1744       O  0.20032710  0.59280733  0.00112255    -0.78600
O1745       O  0.20108531  0.90105540  0.00157187    -0.81900
O1746       O  0.30250908  0.90224605  0.99135522    -0.79800
O1747       O  0.30100399  0.59332618  0.99360816    -0.78500
O1748       O  0.25269512  0.55202769  0.90385885    -0.80000
O1749       O  0.24647395  0.94286975  0.90282549    -0.81900
O1750       O  0.25138447  0.59087028  0.94255226    -0.78600
O1751       O  0.24805599  0.90426875  0.94176330    -0.81300
O1752       O  0.16434382  0.55124566  0.00153089    -0.77000
O1753       O  0.33702163  0.55181319  0.99147541    -0.77100
O1754       O  0.33901143  0.94330315  0.99503130    -0.76700
O1755       O  0.16547398  0.94281337  0.99948590    -0.80200
O1756       O  0.19960768  0.00090095  0.90042566    -0.79600
O1757       O  0.29993495  0.99203136  0.89992920    -0.78000
Eu1758     Eu  0.18894979  0.99745237  0.99683951     2.39800
Eu1759     Eu  0.31437710  0.99742751  0.99641730     2.39600
Eu1760     Eu  0.25084489  0.56414150  0.99743199     2.38400
Eu1761     Eu  0.25159245  0.93003274  0.99695709     2.39900
Eu1762     Eu  0.25010287  0.99746960  0.92931034     2.39800
O1763       O  0.28207824  0.96468234  0.96360549    -0.92400
O1764       O  0.21830314  0.53106684  0.96387291    -0.91300
C1765       C  0.17099944  0.00082532  0.91188917     1.02800
C1766       C  0.32862596  0.98969987  0.91094049     1.01500
C1767       C  0.17164260  0.58169167  0.00309057     1.00900
C1768       C  0.17234516  0.91230516  0.00174978     1.02900
C1769       C  0.33140065  0.91304839  0.99177064     1.01800
C1770       C  0.32960253  0.58228991  0.99029106     1.00700
C1771       C  0.25290694  0.58225548  0.91238977     1.00700
C1772       C  0.24620346  0.91276153  0.91159514     1.03300
H1773       H  0.29559838  0.54277575  0.94955427     0.30700
O1774       O  0.28196791  0.53008045  0.96358256    -1.04500
H1775       H  0.20457515  0.95038155  0.95054365     0.32800
O1776       O  0.21907590  0.96349917  0.96337332    -1.07100
N1777       N  0.24213874  0.60777790  0.60777360    -0.03000
C1778       C  0.23809053  0.64083567  0.60410600    -0.00400
C1779       C  0.23072440  0.65580996  0.63301078    -0.23300
C1780       C  0.23153218  0.63318061  0.65591685    -0.23500
C1781       C  0.23935815  0.60436360  0.64100481    -0.00500
H1782       H  0.22652929  0.68125642  0.63747521     0.13300
H1783       H  0.22779910  0.63775572  0.68143310     0.13300
N1784       N  0.25729847  0.88618384  0.60648036    -0.03000
C1785       C  0.26258327  0.85337630  0.60284493    -0.00400
C1786       C  0.27342168  0.83929502  0.63106069    -0.23300
C1787       C  0.27297573  0.86221643  0.65380961    -0.23500
C1788       C  0.26208804  0.89018742  0.63934452    -0.00500
H1789       H  0.27958076  0.81418453  0.63523702     0.13300
H1790       H  0.27863124  0.85833409  0.67903882     0.13300
N1791       N  0.24175191  0.88740863  0.88667945    -0.03000
C1792       C  0.23622948  0.85471603  0.89109441    -0.00400
C1793       C  0.22552048  0.84013744  0.86308375    -0.23300
C1794       C  0.22648194  0.86249939  0.83976484    -0.23500
C1795       C  0.23725951  0.89079835  0.85367686    -0.00500
H1796       H  0.21934052  0.81496413  0.85939100     0.13300
H1797       H  0.22123359  0.85796537  0.81457238     0.13300
N1798       N  0.25681849  0.60749013  0.88712952    -0.03000
C1799       C  0.26188270  0.60363536  0.85424526    -0.00400
C1800       C  0.27107311  0.63216916  0.83966007    -0.23300
C1801       C  0.27019392  0.65513898  0.86227286    -0.23500
C1802       C  0.26060880  0.64059097  0.89070218    -0.00500
H1803       H  0.27648503  0.63638073  0.81441574     0.13300
H1804       H  0.27509439  0.68047985  0.85792076     0.13300
O1805       O  0.99612092  0.66031842  0.55112679    -0.79700
O1806       O  0.99698742  0.83269399  0.54998045    -0.81200
O1807       O  0.05404317  0.74370802  0.58938577    -0.78200
O1808       O  0.44435384  0.74280392  0.59010803    -0.76600
O1809       O  0.40554466  0.74587643  0.55150036    -0.78400
O1810       O  0.09280533  0.74325898  0.55061077    -0.79400
O1811       O  0.99902311  0.79773418  0.59217627    -0.80700
O1812       O  0.99466291  0.69684891  0.59227240    -0.81000
Eu1813     Eu  0.99918526  0.74724147  0.56331424     2.39200
O1814       O  0.46590291  0.77799449  0.52971672    -0.88500
O1815       O  0.03297742  0.71529895  0.52992396    -0.92100
C1816       C  0.99348840  0.66796332  0.58148623     1.02600
C1817       C  0.99713039  0.82621141  0.58058995     1.02400
C1818       C  0.08417560  0.74246040  0.58076441     1.02400
C1819       C  0.41417050  0.74346302  0.58161799     1.00200
H1820       H  0.04597480  0.79209219  0.54357525     0.30000
O1821       O  0.03286286  0.77865515  0.52969302    -1.00900
H1822       H  0.45286355  0.70057778  0.54364450     0.30000
O1823       O  0.46571293  0.71454937  0.53003120    -1.03400
O1824       O  0.00039238  0.83264503  0.94192140    -0.80600
O1825       O  0.00723299  0.65938394  0.94062440    -0.80200
O1826       O  0.09714997  0.79714473  0.00020206    -0.78600
O1827       O  0.40508058  0.79730361  0.99418557    -0.81900
O1828       O  0.40439231  0.69613984  0.99419567    -0.79800
O1829       O  0.09721783  0.69628919  0.99939005    -0.78500
O1830       O  0.05615766  0.74994968  0.90220025    -0.80000
O1831       O  0.44595458  0.74456989  0.90197676    -0.81900
O1832       O  0.09476336  0.74866331  0.94114587    -0.78600
O1833       O  0.40734007  0.74519294  0.94091027    -0.81300
O1834       O  0.05529272  0.83255377  0.99785687    -0.77000
O1835       O  0.05562067  0.66033430  0.99957651    -0.77100
O1836       O  0.44600319  0.66050533  0.99007931    -0.76700
O1837       O  0.44701834  0.83283387  0.99458163    -0.80200
O1838       O  0.99797899  0.79719469  0.89999622    -0.79600
O1839       O  0.00827350  0.69638092  0.89985354    -0.78000
Eu1840     Eu  0.00107792  0.80838052  0.99622274     2.39800
Eu1841     Eu  0.00091602  0.68316945  0.99493679     2.39600
Eu1842     Eu  0.06830925  0.74666250  0.99645043     2.38400
Eu1843     Eu  0.43344034  0.74632556  0.99614660     2.39900
Eu1844     Eu  0.00133558  0.74652158  0.92848230     2.39800
O1845       O  0.46722236  0.71476735  0.96242271    -0.92400
O1846       O  0.03480784  0.77824673  0.96255627    -0.91300
C1847       C  0.99813116  0.82585311  0.91139609     1.02800
C1848       C  0.01028754  0.66750035  0.91047870     1.01500
C1849       C  0.08580488  0.82580833  0.00006521     1.00900
C1850       C  0.41646666  0.82595677  0.99295366     1.02900
C1851       C  0.41551971  0.66772411  0.98995340     1.01800
C1852       C  0.08604573  0.66763112  0.00144595     1.00700
C1853       C  0.08630134  0.74991553  0.91087250     1.00700
C1854       C  0.41579188  0.74434368  0.91067352     1.03300
H1855       H  0.04915436  0.70187957  0.94984028     0.30700
O1856       O  0.03488102  0.71517287  0.96268826    -1.04500
H1857       H  0.45415540  0.79140794  0.94923934     0.32800
O1858       O  0.46734296  0.77755156  0.96258481    -1.07100
N1859       N  0.38899249  0.73925498  0.60684595    -0.03000
C1860       C  0.35601323  0.73505964  0.60318667    -0.00400
C1861       C  0.34174351  0.72383838  0.63118794    -0.23300
C1862       C  0.36482652  0.72242881  0.65373214    -0.23500
C1863       C  0.39301011  0.73311404  0.63949496    -0.00500
H1864       H  0.31651307  0.71813824  0.63529543     0.13300
H1865       H  0.36093017  0.71571994  0.67874705     0.13300
N1866       N  0.10928219  0.73845515  0.60600293    -0.03000
C1867       C  0.14230061  0.73442698  0.60243482    -0.00400
C1868       C  0.15670599  0.72469164  0.63087580    -0.23300
C1869       C  0.13364591  0.72399737  0.65347530    -0.23500
C1870       C  0.10528538  0.73370315  0.63886245    -0.00500
H1871       H  0.18203989  0.71989943  0.63529510     0.13300
H1872       H  0.13773789  0.71865087  0.67876419     0.13300
N1873       N  0.11167961  0.75189799  0.88550673    -0.03000
C1874       C  0.10823258  0.75403544  0.85214559    -0.00400
C1875       C  0.13760833  0.75838982  0.83693860    -0.23300
C1876       C  0.16033199  0.75792464  0.85972596    -0.23500
C1877       C  0.14497950  0.75348950  0.88906537    -0.00500
H1878       H  0.14244764  0.76091265  0.81132329     0.13300
H1879       H  0.18599362  0.76003604  0.85492912     0.13300
N1880       N  0.39034963  0.74137653  0.88550367    -0.03000
C1881       C  0.39382725  0.73651882  0.85255545    -0.00400
C1882       C  0.36500634  0.72805359  0.83808521    -0.23300
C1883       C  0.34224776  0.72934012  0.86084315    -0.23500
C1884       C  0.35721171  0.73834216  0.88927254    -0.00500
H1885       H  0.36049403  0.72275019  0.81285941     0.13300
H1886       H  0.31679247  0.72495658  0.85660862     0.13300
N1887       N  0.14071876  0.63646659  0.00435668    -0.03000
C1888       C  0.14426316  0.60355721  0.00928933    -0.00400
C1889       C  0.11570576  0.58913127  0.01876523    -0.23300
C1890       C  0.09295933  0.61195502  0.01818620    -0.23500
C1891       C  0.10770264  0.64023055  0.00834344    -0.00500
H1892       H  0.11135016  0.56389849  0.02428662     0.13300
H1893       H  0.06759447  0.60782500  0.02327208     0.13300
O1894       O  0.24555802  0.69284582  0.58315377    -0.79700
O1895       O  0.25328326  0.69294952  0.91118433    -0.81200
O1896       O  0.19631586  0.65318694  0.00049047    -0.78200
O1897       O  0.30561434  0.65369474  0.99357356    -0.76600
O1898       O  0.34429586  0.69254762  0.99384318    -0.78400
O1899       O  0.15748443  0.69181475  0.99860278    -0.79400
O1900       O  0.25297327  0.65118247  0.94693666    -0.80700
O1901       O  0.24424612  0.65105610  0.54751080    -0.81000
Eu1902     Eu  0.25112399  0.67999819  0.99734649     2.39200
O1903       O  0.28383524  0.71467484  0.96587863    -0.88500
O1904       O  0.21609438  0.71385729  0.52795220    -0.92100
C1905       C  0.24329925  0.66238376  0.57617624     1.02600
C1906       C  0.25466169  0.66241169  0.91829314     1.02400
C1907       C  0.16607255  0.66167415  0.00046393     1.02400
C1908       C  0.33570365  0.66232521  0.99259428     1.00200
H1909       H  0.20433098  0.70023020  0.95116622     0.30000
O1910       O  0.21754581  0.71353479  0.96514347    -1.00900
H1911       H  0.29533263  0.69956910  0.54229868     0.30000
O1912       O  0.28250620  0.71318918  0.52831662    -1.03400
O1913       O  0.24644513  0.80258603  0.91102363    -0.80600
O1914       O  0.25315917  0.80104213  0.58352287    -0.80200
O1915       O  0.15503667  0.74896868  0.94628701    -0.78600
O1916       O  0.34707908  0.74589658  0.94574537    -0.81900
O1917       O  0.34520379  0.74460155  0.54725860    -0.79800
O1918       O  0.15314552  0.74250703  0.54630747    -0.78500
O1919       O  0.19600926  0.84080283  0.99999381    -0.80000
O1920       O  0.30615477  0.84164413  0.99514788    -0.81900
O1921       O  0.15734735  0.80190383  0.99990057    -0.78600
O1922       O  0.34482817  0.80278673  0.99486480    -0.81300
O1923       O  0.19691271  0.74933123  0.91081630    -0.77000
O1924       O  0.19453620  0.74362971  0.58249110    -0.77100
O1925       O  0.30366579  0.74335189  0.58329970    -0.76700
O1926       O  0.30517464  0.74574687  0.91022791    -0.80200
O1927       O  0.24536607  0.84394754  0.94726900    -0.79600
O1928       O  0.25370708  0.84219488  0.54702446    -0.78000
Eu1929     Eu  0.25097279  0.74781543  0.93459684     2.39800
Eu1930     Eu  0.24932365  0.74701405  0.55916130     2.39600
Eu1931     Eu  0.18386208  0.74688391  0.99731051     2.38400
Eu1932     Eu  0.31837911  0.74795421  0.99639270     2.39900
Eu1933     Eu  0.25102904  0.81467570  0.99742045     2.39800
O1934       O  0.28311863  0.78022613  0.52832028    -0.92400
O1935       O  0.21785883  0.78042377  0.96626956    -0.91300
C1936       C  0.24370988  0.83295940  0.91846716     1.02800
C1937       C  0.25543018  0.83133719  0.57583125     1.01500
C1938       C  0.16637719  0.75016489  0.91756644     1.00900
C1939       C  0.33571127  0.74426819  0.91713139     1.02900
C1940       C  0.33413028  0.74214826  0.57595380     1.01800
C1941       C  0.16415307  0.74119940  0.57507184     1.00700
C1942       C  0.16585033  0.83215100  0.00051541     1.00700
C1943       C  0.33639578  0.83298288  0.99432242     1.03300
H1944       H  0.20278990  0.79357706  0.54272167     0.30700
O1945       O  0.21577269  0.78044235  0.52837838    -1.04500
H1946       H  0.29757185  0.79519615  0.95033820     0.32800
O1947       O  0.28475149  0.78188163  0.96463988    -1.07100
N1948       N  0.36198127  0.85799045  0.99081056    -0.03000
C1949       C  0.35878833  0.89098886  0.98619076    -0.00400
C1950       C  0.38754808  0.90516143  0.97705396    -0.23300
C1951       C  0.41002675  0.88205129  0.97726087    -0.23500
C1952       C  0.39500467  0.85384575  0.98686220    -0.00500
H1953       H  0.39221042  0.93037988  0.97198166     0.13300
H1954       H  0.43539619  0.88591386  0.97199494     0.13300
N1955       N  0.14051184  0.85750593  0.00273911    -0.03000
C1956       C  0.14406280  0.89073714  0.00563781    -0.00400
C1957       C  0.11476986  0.90592331  0.01062184    -0.23300
C1958       C  0.09193786  0.88326384  0.00955586    -0.23500
C1959       C  0.10720087  0.85407772  0.00422597    -0.00500
H1960       H  0.11003589  0.93149387  0.01363417     0.13300
H1961       H  0.06628316  0.88801936  0.01185255     0.13300
N1962       N  0.36073382  0.63701795  0.98806665    -0.03000
C1963       C  0.39355138  0.64063754  0.98293526    -0.00400
C1964       C  0.40762947  0.61248029  0.97188878    -0.23300
C1965       C  0.38458942  0.58988256  0.97149993    -0.23500
C1966       C  0.35663693  0.60424634  0.98265182    -0.00500
H1967       H  0.43276824  0.60823827  0.96589258     0.13300
H1968       H  0.38844392  0.56474610  0.96522468     0.13300
N1969       N  0.99234525  0.13512268  0.13613383    -0.03000
C1970       C  0.49028730  0.10126768  0.13918011    -0.00400
C1971       C  0.48234096  0.08647243  0.11035405    -0.23300
C1972       C  0.48193855  0.10931064  0.08767438    -0.23500
C1973       C  0.49002991  0.13805535  0.10254312    -0.00500
H1974       H  0.47842493  0.06103112  0.10575206     0.13300
H1975       H  0.47743145  0.10487790  0.06225354     0.13300
O1976       O  0.49786634  0.18979542  0.15254675    -0.79700
O1977       O  0.50014473  0.19068439  0.34024538    -0.81200
O1978       O  0.55001954  0.14886713  0.24366431    -0.78200
O1979       O  0.95027569  0.15052757  0.25330646    -0.76600
O1980       O  0.91379334  0.19163129  0.25023644    -0.78400
O1981       O  0.58557732  0.19076666  0.24372866    -0.79400
O1982       O  0.50218840  0.15183555  0.30158502    -0.80700
O1983       O  0.49779873  0.15108118  0.19135438    -0.81000
Eu1984     Eu  0.49957611  0.17770015  0.24656992     2.39200
O1985       O  0.96979739  0.21312432  0.27998399    -0.88500
O1986       O  0.53112600  0.21172252  0.21363000    -0.92100
C1987       C  0.49714454  0.15961953  0.16109216     1.02600
C1988       C  0.50181019  0.16054388  0.33172079     1.02400
C1989       C  0.57862611  0.16025760  0.24204719     1.02400
C1990       C  0.92140119  0.16142121  0.25384697     1.00200
H1991       H  0.54561559  0.19856765  0.29337042     0.30000
O1992       O  0.53137879  0.21161498  0.28019448    -1.00900
H1993       H  0.95416215  0.19869294  0.20038261     0.30000
O1994       O  0.96854679  0.21183964  0.21332268    -1.03400
O1995       O  0.50330967  0.30010409  0.34040360    -0.80600
O1996       O  0.49782750  0.29951737  0.15258620    -0.80200
O1997       O  0.58495128  0.24776809  0.30134338    -0.78600
O1998       O  0.91438018  0.24376044  0.30105434    -0.81900
O1999       O  0.91484082  0.24930267  0.19233494    -0.79800
O2000       O  0.58565024  0.24216137  0.19245640    -0.78500
O2001       O  0.55084952  0.34118744  0.24374334    -0.80000
O2002       O  0.95030922  0.34184581  0.24580356    -0.81900
O2003       O  0.58655781  0.29944108  0.24491947    -0.78600
O2004       O  0.91449307  0.30017734  0.24587685    -0.81300
O2005       O  0.54946950  0.24758771  0.34319723    -0.77000
O2006       O  0.55043279  0.24160792  0.15038856    -0.77100
O2007       O  0.95066932  0.24841572  0.15068263    -0.76700
O2008       O  0.94992234  0.24451910  0.34289913    -0.80200
O2009       O  0.50498774  0.33848331  0.30130608    -0.79600
O2010       O  0.49816039  0.33854086  0.19112300    -0.78000
Eu2011     Eu  0.49946831  0.24539009  0.31370229     2.39800
Eu2012     Eu  0.49992135  0.24455721  0.17924330     2.39600
Eu2013     Eu  0.56201843  0.24522143  0.24668517     2.38400
Eu2014     Eu  0.93828233  0.24582605  0.24694542     2.39900
Eu2015     Eu  0.50021804  0.31242627  0.24616682     2.39800
O2016       O  0.96979539  0.27862873  0.21400234    -0.92400
O2017       O  0.53116527  0.27855428  0.27978478    -0.91300
C2018       C  0.50560896  0.33013794  0.33159381     1.02800
C2019       C  0.49714142  0.32977716  0.16100325     1.01500
C2020       C  0.57808539  0.24899082  0.33187652     1.00900
C2021       C  0.92127465  0.24289381  0.33156426     1.02900
C2022       C  0.92206223  0.25077820  0.16185694     1.01800
C2023       C  0.57900810  0.24060804  0.16190077     1.00700
C2024       C  0.57956912  0.32997493  0.24330201     1.00700
C2025       C  0.92159968  0.33067183  0.24472187     1.03300
H2026       H  0.54571306  0.29155659  0.19877151     0.30700
O2027       O  0.53182620  0.27862377  0.21238821    -1.04500
H2028       H  0.95470807  0.29312925  0.29415955     0.32800
O2029       O  0.96860522  0.27984738  0.28088546    -1.07100
N2030       N  0.51109449  0.35540115  0.35658991    -0.03000
C2031       C  0.51744967  0.35174016  0.38923816    -0.00400
C2032       C  0.52994680  0.37955965  0.40275286    -0.23300
C2033       C  0.52943103  0.40224764  0.37970841    -0.23500
C2034       C  0.51670486  0.38804903  0.35231246    -0.00500
H2035       H  0.53688380  0.38364898  0.42767860     0.13300
H2036       H  0.53599724  0.42735830  0.38326483     0.13300
N2037       N  0.00146576  0.13567911  0.35768347    -0.03000
C2038       C  0.50992055  0.10253991  0.35344079    -0.00400
C2039       C  0.51820408  0.08807583  0.38228225    -0.23300
C2040       C  0.51673566  0.11080324  0.40512386    -0.23500
C2041       C  0.50793091  0.13930291  0.39018683    -0.00500
H2042       H  0.52326333  0.06282603  0.38678232     0.13300
H2043       H  0.52090836  0.10649542  0.43060284     0.13300
N2044       N  0.49329819  0.35494492  0.13569185    -0.03000
C2045       C  0.48835387  0.35109055  0.10275891    -0.00400
C2046       C  0.47833359  0.37946728  0.08837716    -0.23300
C2047       C  0.47870632  0.40235758  0.11118250    -0.23500
C2048       C  0.48881361  0.38793274  0.13952341    -0.00500
H2049       H  0.47256018  0.38363470  0.06317172     0.13300
H2050       H  0.47313249  0.42760638  0.10702612     0.13300
O2051       O  0.49779334  0.04915727  0.15982759    -0.79700
O2052       O  0.50208028  0.05015643  0.33307903    -0.81200
O2053       O  0.94514279  0.09023323  0.24976372    -0.78200
O2054       O  0.55508103  0.08873603  0.24466798    -0.76600
O2055       O  0.59399119  0.05017138  0.24352564    -0.78400
O2056       O  0.90626101  0.05155424  0.24988097    -0.79400
O2057       O  0.50407667  0.09151938  0.29690869    -0.80700
O2058       O  0.49600289  0.09072888  0.19578484    -0.81000
Eu2059     Eu  0.49997946  0.06235677  0.24660005     2.39200
O2060       O  0.53299520  0.02815730  0.27784262    -0.88500
O2061       O  0.96728714  0.02957942  0.21473390    -0.92100
C2062       C  0.49549473  0.07958104  0.16701303     1.02600
C2063       C  0.50455985  0.08057894  0.32574548     1.02400
C2064       C  0.91494075  0.08171400  0.25096555     1.02400
C2065       C  0.58531006  0.08033803  0.24339126     1.00200
H2066       H  0.95336637  0.04289294  0.29239695     0.30000
O2067       O  0.96651255  0.02999564  0.27799159    -1.00900
H2068       H  0.54666537  0.04203150  0.19980829     0.30000
O2069       O  0.53359944  0.02895479  0.21410813    -1.03400
O2070       O  0.50635168  0.44033207  0.33322793    -0.80600
O2071       O  0.49667615  0.44034319  0.15978090    -0.80200
O2072       O  0.90540083  0.49171266  0.29811797    -0.78600
O2073       O  0.59544792  0.50101841  0.29765978    -0.81900
O2074       O  0.59672498  0.49272520  0.19654306    -0.79800
O2075       O  0.90495048  0.49832574  0.19740474    -0.78500
O2076       O  0.94642547  0.40222109  0.24722476    -0.80000
O2077       O  0.55531068  0.40156263  0.24483365    -0.81900
O2078       O  0.90772677  0.44107540  0.24613156    -0.78600
O2079       O  0.59407633  0.44034246  0.24635727    -0.81300
O2080       O  0.94698826  0.49048578  0.33407149    -0.77000
O2081       O  0.94661782  0.49812937  0.16158477    -0.77100
O2082       O  0.55483075  0.49090505  0.16113248    -0.76700
O2083       O  0.55445608  0.50044007  0.33439256    -0.80200
O2084       O  0.50411782  0.39884612  0.29711871    -0.79600
O2085       O  0.49701220  0.39895049  0.19593568    -0.78000
Eu2086     Eu  0.50063663  0.49497034  0.30991383     2.39800
Eu2087     Eu  0.50024845  0.49446108  0.18444381     2.39600
Eu2088     Eu  0.93418869  0.49595255  0.24787931     2.38400
Eu2089     Eu  0.56752863  0.49533115  0.24657329     2.39900
Eu2090     Eu  0.50016215  0.42778024  0.24685534     2.39800
O2091       O  0.53378456  0.46129170  0.21516747    -0.92400
O2092       O  0.96812209  0.46212005  0.27922582    -0.91300
C2093       C  0.50779059  0.40991336  0.32567554     1.02800
C2094       C  0.49515578  0.40988899  0.16710376     1.01500
C2095       C  0.91644419  0.48900700  0.32673864     1.00900
C2096       C  0.58469111  0.50304936  0.32654128     0.99300
C2097       C  0.58539445  0.49028842  0.16801676     1.01800
C2098       C  0.91613791  0.49971505  0.16867509     1.00700
C2099       C  0.91618589  0.41085854  0.24610136     1.00700
C2100       C  0.58553259  0.41014253  0.24508092     1.03300
H2101       H  0.95429023  0.44968135  0.20249347     0.30700
O2102       O  0.96799119  0.46270685  0.21615763    -1.04500
H2103       H  0.54815677  0.44912834  0.29172682     0.32800
O2104       O  0.53400969  0.46189842  0.27827492    -1.07100
N2105       N  0.61041116  0.10582963  0.23999217    -0.03000
C2106       C  0.60646465  0.13883186  0.23609060    -0.00400
C2107       C  0.63491043  0.15385003  0.22721232    -0.23300
C2108       C  0.65791715  0.13131659  0.22716057    -0.23500
C2109       C  0.64347981  0.10255991  0.23588920    -0.00500
H2110       H  0.63901433  0.17925752  0.22239478     0.13300
H2111       H  0.68322892  0.13594816  0.22243369     0.13300
N2112       N  0.88988442  0.10699906  0.25557463    -0.03000
C2113       C  0.89410885  0.13968272  0.26122756    -0.00400
C2114       C  0.86599056  0.15420395  0.27172609    -0.23300
C2115       C  0.84274840  0.13176813  0.27060940    -0.23500
C2116       C  0.85684746  0.10355644  0.25978747    -0.00500
H2117       H  0.86216415  0.17939057  0.27765537     0.13300
H2118       H  0.81748862  0.13621666  0.27562785     0.13300
N2119       N  0.89063033  0.38568729  0.24325155    -0.03000
C2120       C  0.85750674  0.38950835  0.23963471    -0.00400
C2121       C  0.84225877  0.36070324  0.23256183    -0.23300
C2122       C  0.86471207  0.33771242  0.23308840    -0.23500
C2123       C  0.89376689  0.35245577  0.24031880    -0.00500
H2124       H  0.81677618  0.35641675  0.22828690     0.13300
H2125       H  0.85988661  0.31226712  0.22921951     0.13300
N2126       N  0.61094735  0.38486520  0.24238615    -0.03000
C2127       C  0.60750466  0.35171034  0.23880286    -0.00400
C2128       C  0.63638775  0.33693846  0.23105198    -0.23300
C2129       C  0.65906352  0.35979420  0.23108046    -0.23500
C2130       C  0.64407694  0.38855683  0.23892523    -0.00500
H2131       H  0.64090630  0.31155699  0.22642301     0.13300
H2132       H  0.68448470  0.35545171  0.22649804     0.13300
N2133       N  0.86145331  0.50280754  0.13696492    -0.03000
C2134       C  0.89460025  0.50575404  0.14082779    -0.00400
C2135       C  0.90960184  0.51503911  0.11248861    -0.23300
C2136       C  0.88684375  0.51690852  0.08975307    -0.23500
C2137       C  0.85800684  0.50828472  0.10409131    -0.00500
H2138       H  0.93508009  0.51928795  0.10829916     0.13300
H2139       H  0.89135183  0.52266285  0.06460201     0.13300
O2140       O  0.69579550  0.08245571  0.24362234    -0.79700
O2141       O  0.69619556  0.40969843  0.24488974    -0.81200
O2142       O  0.65679014  0.49401138  0.19195410    -0.78200
O2143       O  0.65608918  0.49855854  0.30174413    -0.76600
O2144       O  0.69503965  0.50068244  0.34035797    -0.78400
O2145       O  0.69556959  0.49470017  0.15323240    -0.79400
O2146       O  0.65430425  0.44521437  0.24516717    -0.80700
O2147       O  0.65433529  0.04635926  0.24252943    -0.81000
Eu2148     Eu  0.68307887  0.49586495  0.24688206     2.39200
O2149       O  0.71686520  0.46465687  0.28052449    -0.88500
O2150       O  0.71737500  0.02740452  0.21297794    -0.92100
C2151       C  0.66538569  0.07509739  0.24155050     1.02600
C2152       C  0.66564020  0.41657265  0.24376365     1.02400
C2153       C  0.66535619  0.49360113  0.16178723     1.02400
C2154       C  0.66479179  0.50079360  0.33187311     1.00200
H2155       H  0.70475771  0.45047239  0.20007609     0.30000
O2156       O  0.71754791  0.46450804  0.21364170    -1.00900
H2157       H  0.70351886  0.04263064  0.29257096     0.30000
O2158       O  0.71658605  0.02830905  0.27954542    -1.03400
O2159       O  0.80552970  0.41072933  0.24642510    -0.80600
O2160       O  0.80443455  0.08406057  0.24958178    -0.80200
O2161       O  0.75329520  0.44542723  0.15162749    -0.78600
O2162       O  0.74273072  0.44619093  0.34268944    -0.81900
O2163       O  0.75406329  0.04640074  0.34234175    -0.79800
O2164       O  0.74556428  0.04699011  0.15082989    -0.78500
O2165       O  0.84432739  0.49856378  0.19229167    -0.80000
O2166       O  0.84466436  0.49273548  0.30185441    -0.81900
O2167       O  0.80579690  0.49819100  0.15328643    -0.78600
O2168       O  0.80560738  0.49232042  0.34040397    -0.81300
O2169       O  0.75437143  0.40963283  0.19336502    -0.77000
O2170       O  0.74746362  0.08311298  0.19226443    -0.77100
O2171       O  0.75305742  0.08231615  0.30079515    -0.76700
O2172       O  0.74457653  0.40913819  0.30196862    -0.80200
O2173       O  0.84729821  0.44627348  0.24370139    -0.79600
O2174       O  0.84574301  0.04772777  0.25076464    -0.78000
Eu2175     Eu  0.75054009  0.43358397  0.24769157     2.39800
Eu2176     Eu  0.75037544  0.05893976  0.24616457     2.39600
Eu2177     Eu  0.75069211  0.49646832  0.17969949     2.38400
Eu2178     Eu  0.75016095  0.49641131  0.31430920     2.39900
Eu2179     Eu  0.81776438  0.49607517  0.24725621     2.39800
O2180       O  0.78336543  0.02767236  0.27915288    -0.92400
O2181       O  0.78353680  0.46482438  0.21412327    -0.91300
C2182       C  0.83603374  0.41761853  0.24401370     1.02800
C2183       C  0.83478909  0.07651490  0.25226291     1.01500
C2184       C  0.75545819  0.41677969  0.16284847     1.00900
C2185       C  0.74094475  0.41726770  0.33208485     1.02900
C2186       C  0.75520651  0.07512236  0.33122213     1.01800
C2187       C  0.74470554  0.07570548  0.16197937     1.00700
C2188       C  0.83595839  0.49916475  0.16203808     1.00700
C2189       C  0.83593454  0.49144473  0.33197516     1.03300
H2190       H  0.79714167  0.04334235  0.19906269     0.30700
O2191       O  0.78415823  0.02891420  0.21207507    -1.04500
H2192       H  0.79683192  0.44981167  0.29452413     0.32800
O2193       O  0.78406409  0.46417826  0.28123647    -1.07100
N2194       N  0.63970593  0.50559006  0.35713193    -0.03000
C2195       C  0.64377475  0.51079229  0.38995272    -0.00400
C2196       C  0.61574300  0.52158476  0.40438445    -0.23300
C2197       C  0.59274279  0.52153738  0.38171055    -0.23500
C2198       C  0.60682802  0.51067562  0.35347726    -0.00500
H2199       H  0.61180004  0.52717765  0.42959868     0.13300
H2200       H  0.56756997  0.52716594  0.38603307     0.13300
N2201       N  0.86110932  0.48703953  0.35728948    -0.03000
C2202       C  0.89413918  0.48215070  0.35383453    -0.00400
C2203       C  0.90815860  0.47170652  0.38222683    -0.23300
C2204       C  0.88499356  0.47160206  0.40478033    -0.23500
C2205       C  0.85696352  0.48223349  0.39014816    -0.00500
H2206       H  0.93333677  0.46599331  0.38662859     0.13300
H2207       H  0.88876290  0.46582585  0.43004565     0.13300
N2208       N  0.64004698  0.49008428  0.13654643    -0.03000
C2209       C  0.64364055  0.48682607  0.10345223    -0.00400
C2210       C  0.61502528  0.47824281  0.08856501    -0.23300
C2211       C  0.59237086  0.47709743  0.11142610    -0.23500
C2212       C  0.60709045  0.48533301  0.14020449    -0.00500
H2213       H  0.61063474  0.47396538  0.06311621     0.13300
H2214       H  0.56708238  0.47185644  0.10704172     0.13300
O2215       O  0.83767227  0.50160892  0.05160642    -0.79700
O2216       O  0.66435240  0.49465630  0.05160695    -0.81200
O2217       O  0.74732320  0.05104295  0.09078598    -0.78200
O2218       O  0.75370864  0.44182841  0.09131158    -0.76600
O2219       O  0.75310016  0.40307505  0.05246471    -0.78400
O2220       O  0.74882798  0.08995206  0.05222994    -0.79400
O2221       O  0.70022993  0.49310558  0.09319222    -0.80700
O2222       O  0.80180902  0.50109702  0.09326376    -0.81000
Eu2223     Eu  0.75115569  0.49721713  0.06500915     2.39200
O2224       O  0.72005490  0.46392031  0.03078404    -0.88500
O2225       O  0.78228769  0.02980168  0.03080125    -0.92100
C2226       C  0.83046789  0.50302250  0.08209596     1.02600
C2227       C  0.67149041  0.49240162  0.08198017     1.02400
C2228       C  0.74715526  0.08134028  0.08233894     1.02400
C2229       C  0.75413365  0.41157173  0.08265777     1.00200
H2230       H  0.70486077  0.04186223  0.04466102     0.30000
O2231       O  0.71867316  0.02911626  0.03080623    -1.00900
H2232       H  0.79711172  0.45067421  0.04433013     0.30000
O2233       O  0.78280949  0.46356903  0.03111033    -1.03400
O2234       O  0.66353238  0.50050167  0.44213649    -0.80600
O2235       O  0.83700532  0.49272325  0.44222555    -0.80200
O2236       O  0.69926277  0.09252573  0.49276253    -0.78600
O2237       O  0.69925929  0.40128727  0.50154611    -0.81900
O2238       O  0.80050676  0.40134667  0.49761763    -0.79800
O2239       O  0.80075381  0.09248678  0.49246955    -0.78500
O2240       O  0.75267140  0.05115503  0.40259774    -0.80000
O2241       O  0.74527157  0.44201949  0.40306151    -0.81900
O2242       O  0.75183124  0.09013669  0.44121887    -0.78600
O2243       O  0.74503192  0.40338266  0.44200339    -0.81300
O2244       O  0.66348471  0.05077810  0.49265112    -0.77000
O2245       O  0.83716133  0.05127589  0.48999059    -0.77100
O2246       O  0.83634788  0.44300806  0.49857757    -0.76700
O2247       O  0.66322312  0.44277298  0.49994918    -0.80200
O2248       O  0.69985887  0.50268228  0.40081868    -0.79600
O2249       O  0.80088650  0.49147299  0.40077471    -0.78000
Eu2250     Eu  0.68733053  0.49710340  0.49683400     2.39800
Eu2251     Eu  0.81235056  0.49712430  0.49640405     2.39600
Eu2252     Eu  0.75001175  0.06402336  0.49622425     2.38400
Eu2253     Eu  0.74971537  0.42990712  0.49676442     2.39900
Eu2254     Eu  0.75026974  0.49689766  0.42928644     2.39800
O2255       O  0.78171041  0.46325667  0.46307592    -0.92400
O2256       O  0.71874131  0.02945479  0.46306630    -0.91300
C2257       C  0.67104640  0.50355770  0.41179955     1.02800
C2258       C  0.82963870  0.48988791  0.41185675     1.01500
C2259       C  0.67057731  0.08128537  0.49112378     1.00900
C2260       C  0.67049858  0.41236870  0.50242576     1.02900
C2261       C  0.82919616  0.41252920  0.49937544     1.01800
C2262       C  0.82939990  0.08167471  0.48866288     1.00700
C2263       C  0.75302581  0.08142194  0.41109774     1.00700
C2264       C  0.74355705  0.41191112  0.41181941     1.03300
H2265       H  0.79469375  0.04227308  0.44874183     0.30700
O2266       O  0.78093849  0.02955815  0.46261938    -1.04500
H2267       H  0.70340770  0.45080772  0.45019905     0.32800
O2268       O  0.71796706  0.46371859  0.46314064    -1.07100
N2269       N  0.74316016  0.10671138  0.10752427    -0.03000
C2270       C  0.73909754  0.13974732  0.10389217    -0.00400
C2271       C  0.72913273  0.15435990  0.13219751    -0.23300
C2272       C  0.72875764  0.13154373  0.15493937    -0.23500
C2273       C  0.73828207  0.10308487  0.14037128    -0.00500
H2274       H  0.72402056  0.17969256  0.13644418     0.13300
H2275       H  0.72353591  0.13581154  0.18022196     0.13300
N2276       N  0.75740411  0.38602146  0.10774284    -0.03000
C2277       C  0.76132859  0.35298127  0.10370925    -0.00400
C2278       C  0.76949241  0.33783753  0.13228433    -0.23300
C2279       C  0.76907787  0.36025584  0.15540528    -0.23500
C2280       C  0.76090522  0.38917560  0.14092271    -0.00500
H2281       H  0.77404030  0.31239306  0.13640859     0.13300
H2282       H  0.77336717  0.35545705  0.18078440     0.13300
N2283       N  0.73747093  0.38682754  0.38689993    -0.03000
C2284       C  0.73036942  0.35444438  0.39123604    -0.00400
C2285       C  0.71712959  0.34093615  0.36374808    -0.23300
C2286       C  0.71810811  0.36365635  0.34058567    -0.23500
C2287       C  0.73162622  0.39091410  0.35425384    -0.00500
H2288       H  0.70956771  0.31614287  0.36016003     0.13300
H2289       H  0.71124272  0.36001188  0.31557005     0.13300
N2290       N  0.75653068  0.10667843  0.38584004    -0.03000
C2291       C  0.76114064  0.10281623  0.35292054    -0.00400
C2292       C  0.77006791  0.13137735  0.33824169    -0.23300
C2293       C  0.76952411  0.15435086  0.36088833    -0.23500
C2294       C  0.76014753  0.13983938  0.38939938    -0.00500
H2295       H  0.77492727  0.13564050  0.31291328     0.13300
H2296       H  0.77424607  0.17971060  0.35644787     0.13300
O2297       O  0.49693453  0.15875438  0.05019537    -0.79700
O2298       O  0.49567233  0.33079175  0.05019107    -0.81200
O2299       O  0.55580909  0.24264657  0.09009774    -0.78200
O2300       O  0.94629461  0.24787756  0.09037350    -0.76600
O2301       O  0.90759469  0.24840575  0.05157270    -0.78400
O2302       O  0.59483381  0.24364693  0.05165403    -0.79400
O2303       O  0.49876383  0.29518763  0.09193824    -0.80700
O2304       O  0.49760867  0.19444967  0.09195914    -0.81000
Eu2305     Eu  0.50124106  0.24478160  0.06283840     2.39200
O2306       O  0.96843208  0.27663760  0.02994090    -0.88500
O2307       O  0.53467638  0.21348624  0.02900045    -0.92100
C2308       C  0.49564666  0.16579471  0.08075686     1.02600
C2309       C  0.49503734  0.32368265  0.08076012     1.02400
C2310       C  0.58608661  0.24259465  0.08183557     1.02400
C2311       C  0.91613528  0.24910183  0.08178695     1.00200
H2312       H  0.54754957  0.29075815  0.04368640     0.30000
O2313       O  0.53477368  0.27707708  0.02970249    -1.00900
H2314       H  0.95385327  0.19964476  0.04275024     0.30000
O2315       O  0.96774525  0.21344812  0.03000896    -1.03400
O2316       O  0.50703681  0.33345171  0.44207361    -0.80600
O2317       O  0.50101281  0.16033385  0.44218283    -0.80200
O2318       O  0.59558508  0.29734148  0.50129092    -0.78600
O2319       O  0.90336412  0.29756243  0.49858293    -0.81900
O2320       O  0.90333256  0.19645846  0.49232428    -0.79800
O2321       O  0.59557106  0.19610599  0.49285842    -0.78500
O2322       O  0.55419441  0.24811354  0.40330727    -0.80000
O2323       O  0.94480750  0.24646229  0.40292006    -0.81900
O2324       O  0.59285194  0.24934101  0.44212839    -0.78600
O2325       O  0.90590765  0.24643638  0.44156483    -0.81300
O2326       O  0.55415564  0.33348993  0.50056719    -0.77000
O2327       O  0.55404861  0.16010837  0.49444892    -0.77100
O2328       O  0.94470673  0.16021615  0.49096097    -0.76700
O2329       O  0.94531110  0.33301650  0.49844680    -0.80200
O2330       O  0.50499447  0.29692516  0.40096538    -0.79600
O2331       O  0.50122348  0.19603505  0.40045614    -0.78000
Eu2332     Eu  0.49993848  0.30949556  0.49637075     2.39800
Eu2333     Eu  0.49971129  0.18415674  0.49655965     2.39600
Eu2334     Eu  0.56691540  0.24661354  0.49714704     2.38400
Eu2335     Eu  0.93196488  0.24712940  0.49671444     2.39900
Eu2336     Eu  0.49942388  0.24671243  0.42947289     2.39800
O2337       O  0.96623577  0.21573224  0.46383642    -0.92400
O2338       O  0.53297895  0.27789680  0.46360370    -0.91300
C2339       C  0.50879007  0.32553036  0.41173725     1.02800
C2340       C  0.50237258  0.16730537  0.41168225     1.01500
C2341       C  0.58455637  0.32614732  0.50264499     1.00900
C2342       C  0.91478857  0.32613680  0.49976935     1.02900
C2343       C  0.91431917  0.16780198  0.48902568     1.01800
C2344       C  0.58445470  0.16734918  0.49207925     1.00700
C2345       C  0.58429366  0.24926437  0.41193950     1.00700
C2346       C  0.91458314  0.24589397  0.41140113     1.03300
H2347       H  0.54631318  0.20201064  0.44982254     0.30700
O2348       O  0.53295995  0.21548818  0.46339318    -1.04500
H2349       H  0.95261449  0.29307073  0.44938640     0.32800
O2350       O  0.96555811  0.27887781  0.46271468    -1.07100
N2351       N  0.89090744  0.25295456  0.10709931    -0.03000
C2352       C  0.85790307  0.25724266  0.10353213    -0.00400
C2353       C  0.84341390  0.26684425  0.13201457    -0.23300
C2354       C  0.86629071  0.26706719  0.15470595    -0.23500
C2355       C  0.89466511  0.25740683  0.14007401    -0.00500
H2356       H  0.81811850  0.27192703  0.13639585     0.13300
H2357       H  0.86209818  0.27237619  0.18000655     0.13300
N2358       N  0.61122828  0.24038006  0.10751880    -0.03000
C2359       C  0.64460875  0.23909313  0.10461141    -0.00400
C2360       C  0.65952305  0.23291486  0.13380341    -0.23300
C2361       C  0.63641583  0.23115094  0.15607313    -0.23500
C2362       C  0.60735390  0.23668647  0.14061286    -0.00500
H2363       H  0.68510582  0.23046178  0.13883014     0.13300
H2364       H  0.64081332  0.22739414  0.18161434     0.13300
N2365       N  0.60956328  0.25135459  0.38661241    -0.03000
C2366       C  0.60617836  0.25331423  0.35335467    -0.00400
C2367       C  0.63537248  0.25874187  0.33816507    -0.23300
C2368       C  0.65801354  0.25898242  0.36093044    -0.23500
C2369       C  0.64271792  0.25387458  0.39012574    -0.00500
H2370       H  0.64019420  0.26141578  0.31256617     0.13300
H2371       H  0.68361449  0.26175078  0.35620833     0.13300
N2372       N  0.88936391  0.24290339  0.38601665    -0.03000
C2373       C  0.89320259  0.23839780  0.35307905    -0.00400
C2374       C  0.86445516  0.23030348  0.33819629    -0.23300
C2375       C  0.84150372  0.23099451  0.36074500    -0.23500
C2376       C  0.85617974  0.23965670  0.38938416    -0.00500
H2377       H  0.86012349  0.22541017  0.31286739     0.13300
H2378       H  0.81611908  0.22640709  0.35625807     0.13300
N2379       N  0.63914387  0.13609477  0.48977475    -0.03000
C2380       C  0.64280213  0.10303665  0.48564165    -0.00400
C2381       C  0.61407448  0.08831963  0.47719609    -0.23300
C2382       C  0.59131177  0.11111847  0.47722821    -0.23500
C2383       C  0.60609285  0.13971899  0.48595964    -0.00500
H2384       H  0.60957271  0.06293427  0.47279838     0.13300
H2385       H  0.56590469  0.10675060  0.47265424     0.13300
O2386       O  0.74752329  0.19198660  0.08376193    -0.79700
O2387       O  0.75245065  0.19241397  0.40983850    -0.81200
O2388       O  0.69450658  0.15284932  0.49448387    -0.78200
O2389       O  0.80415846  0.15315206  0.49199145    -0.76600
O2390       O  0.84286060  0.19202672  0.49271251    -0.78400
O2391       O  0.65580403  0.19167781  0.49411609    -0.79400
O2392       O  0.75128782  0.15061083  0.44551938    -0.80700
O2393       O  0.74875131  0.15021432  0.04804625    -0.81000
Eu2394     Eu  0.74925444  0.17956366  0.49595777     2.39200
O2395       O  0.78212764  0.21428356  0.46497485    -0.88500
O2396       O  0.71806299  0.21337913  0.02846535    -0.92100
C2397       C  0.74610065  0.16149319  0.07659245     1.02600
C2398       C  0.75368910  0.16181474  0.41690947     1.02400
C2399       C  0.66435164  0.16143303  0.49345535     1.02400
C2400       C  0.83433238  0.16182615  0.49110287     1.00200
H2401       H  0.70245366  0.20036335  0.45031781     0.30000
O2402       O  0.71561250  0.21352831  0.46444538    -1.00900
H2403       H  0.79834710  0.19904895  0.04351112     0.30000
O2404       O  0.78510407  0.21220785  0.02942944    -1.03400
O2405       O  0.74167198  0.30170660  0.40964197    -0.80600
O2406       O  0.75391810  0.30098989  0.08271476    -0.80200
O2407       O  0.65275556  0.25073048  0.44705766    -0.78600
O2408       O  0.84563721  0.24568286  0.44572264    -0.81900
O2409       O  0.84710484  0.24889605  0.04741457    -0.79800
O2410       O  0.65488974  0.24491389  0.04814234    -0.78500
O2411       O  0.69465666  0.34091807  0.49927746    -0.80000
O2412       O  0.80462058  0.34105354  0.49692774    -0.81900
O2413       O  0.65591795  0.30208505  0.49959151    -0.78600
O2414       O  0.84329466  0.30222358  0.49729964    -0.81300
O2415       O  0.69442119  0.24800793  0.41144010    -0.77000
O2416       O  0.69684179  0.24482164  0.08358764    -0.77100
O2417       O  0.80560507  0.24922346  0.08348440    -0.76700
O2418       O  0.80387799  0.24665507  0.40997606    -0.80200
O2419       O  0.74336648  0.34287066  0.44617424    -0.79600
O2420       O  0.75447721  0.34277929  0.04711494    -0.78000
Eu2421     Eu  0.74918339  0.24734489  0.43370490     2.39800
Eu2422     Eu  0.75125142  0.24624262  0.05965471     2.39600
Eu2423     Eu  0.68211800  0.24689540  0.49698426     2.38400
Eu2424     Eu  0.81679404  0.24726993  0.49594762     2.39900
Eu2425     Eu  0.74953562  0.31441753  0.49658100     2.39800
O2426       O  0.78407783  0.27915873  0.02806414    -0.92400
O2427       O  0.71644063  0.27990842  0.46583565    -0.91300
C2428       C  0.73953929  0.33204462  0.41753543     1.02800
C2429       C  0.75575326  0.33149429  0.07575944     1.01500
C2430       C  0.66400815  0.25027446  0.41837373     1.00900
C2431       C  0.83440345  0.24493664  0.41706858     1.02900
C2432       C  0.83603509  0.25085766  0.07612806     1.01800
C2433       C  0.66627532  0.24365902  0.07672156     1.00700
C2434       C  0.66448684  0.33230419  0.50032758     1.00700
C2435       C  0.83483040  0.33245009  0.49771682     1.03300
H2436       H  0.70450398  0.29323564  0.04364402     0.30700
O2437       O  0.71743754  0.27999765  0.02934561    -1.04500
H2438       H  0.79602626  0.29471449  0.44981209     0.32800
O2439       O  0.78315441  0.28127427  0.46396345    -1.07100
N2440       N  0.86027097  0.35770830  0.50074554    -0.03000
C2441       C  0.85688982  0.39079790  0.50451874    -0.00400
C2442       C  0.88563321  0.40548179  0.51304303    -0.23300
C2443       C  0.90826280  0.38263835  0.51314256    -0.23500
C2444       C  0.89331435  0.35402706  0.50471661    -0.00500
H2445       H  0.89013860  0.43081823  0.51794034     0.13300
H2446       H  0.93363069  0.38688874  0.51811548     0.13300
N2447       N  0.63925196  0.35754017  0.50427874    -0.03000
C2448       C  0.64290270  0.39057514  0.50846622    -0.00400
C2449       C  0.61439350  0.40513946  0.51781583    -0.23300
C2450       C  0.59169363  0.38221932  0.51826289    -0.23500
C2451       C  0.60631983  0.35372408  0.50890095    -0.00500
H2452       H  0.61005572  0.43046695  0.52274485     0.13300
H2453       H  0.56640592  0.38641069  0.52365739     0.13300
N2454       N  0.85961948  0.13678423  0.48607671    -0.03000
C2455       C  0.89230048  0.14103370  0.48033768    -0.00400
C2456       C  0.90637890  0.11348727  0.46778745    -0.23300
C2457       C  0.88362413  0.09043395  0.46759983    -0.23500
C2458       C  0.85584377  0.10407067  0.48009539    -0.00500
H2459       H  0.93144555  0.10987121  0.46108535     0.13300
H2460       H  0.88761914  0.06546176  0.46075544     0.13300
N2461       N  0.99104973  0.13656285  0.63614830    -0.03000
C2462       C  0.48889067  0.10236791  0.63938971    -0.00400
C2463       C  0.48116137  0.08754426  0.61053645    -0.23300
C2464       C  0.48245070  0.11012650  0.58760965    -0.23500
C2465       C  0.49083788  0.13879568  0.60249238    -0.00500
H2466       H  0.47633213  0.06221381  0.60613467     0.13300
H2467       H  0.47836596  0.10564235  0.56213072     0.13300
O2468       O  0.49742551  0.19066892  0.65222693    -0.79700
O2469       O  0.50344784  0.19011821  0.83963530    -0.81200
O2470       O  0.54996574  0.14973829  0.74163388    -0.78200
O2471       O  0.94893326  0.15151434  0.75314681    -0.76600
O2472       O  0.91251581  0.19269193  0.75096995    -0.78400
O2473       O  0.58597961  0.19128087  0.74009989    -0.79400
O2474       O  0.50301926  0.15140390  0.80089916    -0.80700
O2475       O  0.49787860  0.15198807  0.69107144    -0.81000
Eu2476     Eu  0.49986094  0.17831174  0.74607690     2.39200
O2477       O  0.96885188  0.21329548  0.78021392    -0.88500
O2478       O  0.53079693  0.21289099  0.71309736    -0.92100
C2479       C  0.49695661  0.16052881  0.66087750     1.02600
C2480       C  0.50403612  0.15992057  0.83112482     1.02400
C2481       C  0.57849994  0.16087598  0.73852174     1.02400
C2482       C  0.92009745  0.16246294  0.75425534     1.00200
H2483       H  0.54753052  0.19825716  0.79183990     0.30000
O2484       O  0.53306426  0.21147801  0.77908484    -1.00900
H2485       H  0.95336720  0.19975144  0.70060512     0.30000
O2486       O  0.96782181  0.21299095  0.71335765    -1.03400
O2487       O  0.50570913  0.29976139  0.83898119    -0.80600
O2488       O  0.49810923  0.30068779  0.65180286    -0.80200
O2489       O  0.58767994  0.24802723  0.79958282    -0.78600
O2490       O  0.91460833  0.24417743  0.80175387    -0.81900
O2491       O  0.91342561  0.24683221  0.69296561    -0.79800
O2492       O  0.58678338  0.24267323  0.69172913    -0.78500
O2493       O  0.55059442  0.34167066  0.74186264    -0.80000
O2494       O  0.94893789  0.34257420  0.74307918    -0.81900
O2495       O  0.58687524  0.30032636  0.74202084    -0.78600
O2496       O  0.91314023  0.30086546  0.74419521    -0.81300
O2497       O  0.55229271  0.24601713  0.84152950    -0.77000
O2498       O  0.55071316  0.24119423  0.65030024    -0.77100
O2499       O  0.94875474  0.24955529  0.65100753    -0.76700
O2500       O  0.95069544  0.24121193  0.84305640    -0.80200
O2501       O  0.50527408  0.33873670  0.80041612    -0.79600
O2502       O  0.49676256  0.33918502  0.69083114    -0.78000
Eu2503     Eu  0.50150673  0.24496502  0.81297423     2.39800
Eu2504     Eu  0.49977371  0.24554335  0.67842951     2.39600
Eu2505     Eu  0.56288230  0.24588257  0.74549805     2.38400
Eu2506     Eu  0.93747135  0.24649797  0.74718043     2.39900
Eu2507     Eu  0.50034944  0.31280460  0.74560410     2.39800
O2508       O  0.96773885  0.27985996  0.71333668    -0.92400
O2509       O  0.53208872  0.27895150  0.77882379    -0.91300
C2510       C  0.50686767  0.32992785  0.83047986     1.02800
C2511       C  0.49636257  0.33083548  0.66059960     1.01500
C2512       C  0.58087874  0.24826987  0.83020387     1.00900
C2513       C  0.92188905  0.24129751  0.83205678     1.02900
C2514       C  0.92015008  0.24881886  0.66242751     1.01800
C2515       C  0.57947359  0.24025920  0.66143983     1.00700
C2516       C  0.57934578  0.33071550  0.74013743     1.00700
C2517       C  0.92027359  0.33133702  0.74188481     1.03300
H2518       H  0.54546101  0.29216995  0.69770055     0.30700
O2519       O  0.53189200  0.27918625  0.71159836    -1.04500
H2520       H  0.95410792  0.29299237  0.79378857     0.32800
O2521       O  0.96830096  0.28000504  0.78057151    -1.07100
N2522       N  0.51193611  0.35487579  0.85568626    -0.03000
C2523       C  0.51783566  0.35064363  0.88831384    -0.00400
C2524       C  0.52952928  0.37848766  0.90247272    -0.23300
C2525       C  0.52905723  0.40157745  0.87978513    -0.23500
C2526       C  0.51711315  0.38767854  0.85190040    -0.00500
H2527       H  0.53603851  0.38226734  0.92756006     0.13300
H2528       H  0.53520218  0.42670536  0.88387791     0.13300
N2529       N  0.00932599  0.13558686  0.85676362    -0.03000
C2530       C  0.51146066  0.10164167  0.85297989    -0.00400
C2531       C  0.52016520  0.08680318  0.88153182    -0.23300
C2532       C  0.52027105  0.10953486  0.90428745    -0.23500
C2533       C  0.51162818  0.13818110  0.88951249    -0.00500
H2534       H  0.52462901  0.06139519  0.88588086     0.13300
H2535       H  0.52501574  0.10510949  0.92966282     0.13300
N2536       N  0.49178756  0.35633166  0.63569542    -0.03000
C2537       C  0.48676711  0.35296080  0.60281059    -0.00400
C2538       C  0.47523756  0.38105470  0.58897911    -0.23300
C2539       C  0.47451471  0.40344521  0.61225345    -0.23500
C2540       C  0.48589811  0.38899142  0.64007818    -0.00500
H2541       H  0.46904973  0.38535982  0.56389423     0.13300
H2542       H  0.46780194  0.42851085  0.60868699     0.13300
O2543       O  0.49587816  0.05040129  0.66025692    -0.79700
O2544       O  0.50204186  0.04989944  0.83276432    -0.81200
O2545       O  0.94447673  0.09119449  0.75110973    -0.78200
O2546       O  0.55400619  0.08970581  0.74279617    -0.76600
O2547       O  0.59303807  0.05120199  0.74381150    -0.78400
O2548       O  0.90556975  0.05251906  0.75148864    -0.79400
O2549       O  0.50482847  0.09140501  0.79685414    -0.80700
O2550       O  0.49424785  0.09208246  0.69603118    -0.81000
Eu2551     Eu  0.49882844  0.06352921  0.74647688     2.39200
O2552       O  0.53239575  0.02928531  0.77717976    -0.88500
O2553       O  0.96586166  0.03054045  0.71540770    -0.92100
C2554       C  0.49367399  0.08082746  0.66732538     1.02600
C2555       C  0.50518270  0.08018121  0.82550431     1.02400
C2556       C  0.91425617  0.08265214  0.75270725     1.02400
C2557       C  0.58428648  0.08127080  0.74219923     1.00200
H2558       H  0.95310731  0.04414460  0.79299685     0.30000
O2559       O  0.96577494  0.03104929  0.77840610    -1.00900
H2560       H  0.54486238  0.04338510  0.70044771     0.30000
O2561       O  0.53215688  0.02983481  0.71455234    -1.03400
O2562       O  0.50645005  0.44021285  0.83321786    -0.80600
O2563       O  0.49464080  0.44132433  0.66010449    -0.80200
O2564       O  0.90409452  0.49071230  0.79802495    -0.78600
O2565       O  0.59571069  0.49977366  0.79797256    -0.81900
O2566       O  0.59579944  0.49386366  0.69597305    -0.79800
O2567       O  0.90330874  0.50058576  0.69651042    -0.78500
O2568       O  0.94452539  0.40310864  0.74314475    -0.80000
O2569       O  0.55475186  0.40217864  0.74243430    -0.81900
O2570       O  0.90567437  0.44176758  0.74337120    -0.78600
O2571       O  0.59366242  0.44072867  0.74523575    -0.81300
O2572       O  0.94528823  0.49256264  0.83447583    -0.77000
O2573       O  0.94490783  0.50006657  0.66051525    -0.77100
O2574       O  0.55400776  0.49143213  0.66035070    -0.76700
O2575       O  0.55436394  0.49884599  0.83422668    -0.80200
O2576       O  0.50528174  0.39922298  0.79651343    -0.79600
O2577       O  0.49609818  0.39963240  0.69594370    -0.78000
Eu2578     Eu  0.50042522  0.49493083  0.80977958     2.39800
Eu2579     Eu  0.49958327  0.49598876  0.68382665     2.39600
Eu2580     Eu  0.93200856  0.49693623  0.74692633     2.38400
Eu2581     Eu  0.56745818  0.49585893  0.74669329     2.39900
Eu2582     Eu  0.49996037  0.42858575  0.74635262     2.39800
O2583       O  0.53317128  0.46269619  0.71479939    -0.92400
O2584       O  0.96617830  0.46384062  0.77794643    -0.91300
C2585       C  0.50843543  0.40989288  0.82531580     1.02800
C2586       C  0.49326574  0.41080885  0.66733914     1.01500
C2587       C  0.91503315  0.48931092  0.82688143     1.00900
C2588       C  0.58472416  0.50112486  0.82683796     0.99300
C2589       C  0.58454673  0.49103711  0.66742426     1.01800
C2590       C  0.91444151  0.50187704  0.66779468     1.00700
C2591       C  0.91430606  0.41155823  0.74236470     1.00700
C2592       C  0.58497600  0.41064111  0.74285346     1.03300
H2593       H  0.95269991  0.45085160  0.69990067     0.30700
O2594       O  0.96573758  0.46386903  0.71427174    -1.04500
H2595       H  0.54818510  0.44902909  0.79135223     0.32800
O2596       O  0.53402161  0.46204355  0.77807999    -1.07100
N2597       N  0.60942735  0.10642382  0.73723823    -0.03000
C2598       C  0.60534036  0.13892536  0.73081591    -0.00400
C2599       C  0.63318171  0.15293779  0.71906427    -0.23300
C2600       C  0.65625731  0.13038170  0.71991795    -0.23500
C2601       C  0.64228389  0.10268879  0.73212185    -0.00500
H2602       H  0.63702080  0.17789930  0.71252242     0.13300
H2603       H  0.68137751  0.13439610  0.71368198     0.13300
N2604       N  0.88911789  0.10777633  0.75786180    -0.03000
C2605       C  0.89290643  0.14074368  0.76200938    -0.00400
C2606       C  0.86480388  0.15523565  0.77265292    -0.23300
C2607       C  0.84208726  0.13226830  0.77383952    -0.23500
C2608       C  0.85635661  0.10387165  0.76365590    -0.00500
H2609       H  0.86064744  0.18058360  0.77757905     0.13300
H2610       H  0.81691906  0.13644554  0.77978162     0.13300
N2611       N  0.88912534  0.38615414  0.73857083    -0.03000
C2612       C  0.85628764  0.38983692  0.73329733    -0.00400
C2613       C  0.84185842  0.36127241  0.72388189    -0.23300
C2614       C  0.86448060  0.33831230  0.72532496    -0.23500
C2615       C  0.89276139  0.35301634  0.73518035    -0.00500
H2616       H  0.81665765  0.35699976  0.71826454     0.13300
H2617       H  0.86025005  0.31289504  0.72061316     0.13300
N2618       N  0.61018842  0.38546445  0.73846953    -0.03000
C2619       C  0.60639999  0.35268968  0.73303080    -0.00400
C2620       C  0.63437863  0.33858605  0.72161565    -0.23300
C2621       C  0.65715523  0.36148638  0.72161033    -0.23500
C2622       C  0.64295342  0.38939076  0.73314333    -0.00500
H2623       H  0.63833818  0.31350899  0.71515693     0.13300
H2624       H  0.68225208  0.35761223  0.71519560     0.13300
N2625       N  0.85953954  0.50357706  0.63684718    -0.03000
C2626       C  0.89258302  0.50764646  0.64027029    -0.00400
C2627       C  0.90707168  0.51662301  0.61162152    -0.23300
C2628       C  0.88416512  0.51677397  0.58899904    -0.23500
C2629       C  0.85571358  0.50775825  0.60381308    -0.00500
H2630       H  0.93239131  0.52129068  0.60707545     0.13300
H2631       H  0.88836867  0.52167988  0.56363995     0.13300
O2632       O  0.69476662  0.08378411  0.74238170    -0.79700
O2633       O  0.69528956  0.40888571  0.74240846    -0.81200
O2634       O  0.65601174  0.49397915  0.69239426    -0.78200
O2635       O  0.65606280  0.49772108  0.80284590    -0.76600
O2636       O  0.69491298  0.49801058  0.84159664    -0.78400
O2637       O  0.69488284  0.49423153  0.65375566    -0.79400
O2638       O  0.65384585  0.44502909  0.74379219    -0.80700
O2639       O  0.65357101  0.04725429  0.74244337    -0.81000
Eu2640     Eu  0.68237390  0.49565725  0.74764040     2.39200
O2641       O  0.71599529  0.46367257  0.78108438    -0.88500
O2642       O  0.71655902  0.02931433  0.71400771    -0.92100
C2643       C  0.66442556  0.07600650  0.74017212     1.02600
C2644       C  0.66487873  0.41637350  0.74086082     1.02400
C2645       C  0.66466925  0.49336916  0.66218208     1.02400
C2646       C  0.66470129  0.49880570  0.83304746     1.00200
H2647       H  0.70375946  0.45092946  0.70008107     0.30000
O2648       O  0.71656938  0.46461571  0.71397501    -1.00900
H2649       H  0.70192772  0.04236069  0.79296567     0.30000
O2650       O  0.71580162  0.02867364  0.78014030    -1.03400
O2651       O  0.80397154  0.40969819  0.74211373    -0.80600
O2652       O  0.80390311  0.08420879  0.75425864    -0.80200
O2653       O  0.75348493  0.44641436  0.65117782    -0.78600
O2654       O  0.74594017  0.44465502  0.84338589    -0.81900
O2655       O  0.74728827  0.04692809  0.84356093    -0.79800
O2656       O  0.75119090  0.04874734  0.65131782    -0.78500
O2657       O  0.84305173  0.49836667  0.69246827    -0.80000
O2658       O  0.84356360  0.49256113  0.80280012    -0.81900
O2659       O  0.80423112  0.49980596  0.65378253    -0.78600
O2660       O  0.80479864  0.49167293  0.84159393    -0.81300
O2661       O  0.75220200  0.41036594  0.69260255    -0.77000
O2662       O  0.75234991  0.08441355  0.69315978    -0.77100
O2663       O  0.74494075  0.08336165  0.80243156    -0.76700
O2664       O  0.74602445  0.40864508  0.80176281    -0.80200
O2665       O  0.84551396  0.44570383  0.74274698    -0.79600
O2666       O  0.84527852  0.04796381  0.75393674    -0.78000
Eu2667     Eu  0.74949246  0.43311897  0.74737288     2.39800
Eu2668     Eu  0.74949580  0.06043833  0.74769922     2.39600
Eu2669     Eu  0.74968137  0.49668647  0.68037459     2.38400
Eu2670     Eu  0.74979462  0.49516629  0.81496733     2.39900
Eu2671     Eu  0.81695590  0.49600645  0.74786150     2.39800
O2672       O  0.78259541  0.02888305  0.78079475    -0.92400
O2673       O  0.78253108  0.46504862  0.71462523    -0.91300
C2674       C  0.83438556  0.41708152  0.74017878     1.02800
C2675       C  0.83429788  0.07669371  0.75646539     1.01500
C2676       C  0.75418139  0.41762994  0.66219133     1.00900
C2677       C  0.74413805  0.41598179  0.83224627     1.02900
C2678       C  0.74399293  0.07563585  0.83278883     1.01800
C2679       C  0.75301427  0.07734273  0.66256537     1.00700
C2680       C  0.83440833  0.49991988  0.66226918     1.00700
C2681       C  0.83502510  0.49106579  0.83299035     1.03300
H2682       H  0.79697137  0.04406369  0.70159546     0.30700
O2683       O  0.78332039  0.02988664  0.71411910    -1.04500
H2684       H  0.79646804  0.44873015  0.79401110     0.32800
O2685       O  0.78342378  0.46326196  0.78116952    -1.07100
N2686       N  0.63948197  0.50280305  0.85831306    -0.03000
C2687       C  0.64313019  0.50676336  0.89139630    -0.00400
C2688       C  0.61455594  0.51575505  0.90606353    -0.23300
C2689       C  0.59188622  0.51639223  0.88311193    -0.23500
C2690       C  0.60652772  0.50735842  0.85449683    -0.00500
H2691       H  0.61016278  0.52036677  0.93144961     0.13300
H2692       H  0.56657949  0.52146539  0.88740705     0.13300
N2693       N  0.86035622  0.48664989  0.85809794    -0.03000
C2694       C  0.89320600  0.48162131  0.85410233    -0.00400
C2695       C  0.90766785  0.47105754  0.88227386    -0.23300
C2696       C  0.88495610  0.47131812  0.90528506    -0.23500
C2697       C  0.85672232  0.48191929  0.89101753    -0.00500
H2698       H  0.93290489  0.46536088  0.88626319     0.13300
H2699       H  0.88917196  0.46581645  0.93053083     0.13300
N2700       N  0.63956323  0.48997978  0.63665427    -0.03000
C2701       C  0.64352476  0.48625429  0.60360444    -0.00400
C2702       C  0.61506975  0.47770438  0.58847228    -0.23300
C2703       C  0.59203890  0.47752718  0.61094867    -0.23500
C2704       C  0.60647320  0.48585477  0.63984980    -0.00500
H2705       H  0.61096956  0.47321574  0.56302068     0.13300
H2706       H  0.56672761  0.47276539  0.60620194     0.13300
O2707       O  0.83509094  0.50011375  0.55156805    -0.79700
O2708       O  0.66443627  0.49411917  0.55167751    -0.81200
O2709       O  0.75130979  0.05210985  0.59066403    -0.78200
O2710       O  0.75197516  0.44209640  0.59057849    -0.76600
O2711       O  0.75146707  0.40336065  0.55177287    -0.78400
O2712       O  0.75120190  0.09054859  0.55163323    -0.79400
O2713       O  0.69994149  0.49339554  0.59351203    -0.80700
O2714       O  0.79945586  0.50050708  0.59338791    -0.81000
Eu2715     Eu  0.74965881  0.49722901  0.56403049     2.39200
O2716       O  0.71834834  0.46390024  0.53007016    -0.88500
O2717       O  0.78210393  0.03093669  0.52974893    -0.92100
C2718       C  0.82805887  0.50187868  0.58211399     1.02600
C2719       C  0.67135863  0.49212409  0.58217739     1.02400
C2720       C  0.75179603  0.08226399  0.58198253     1.02400
C2721       C  0.75237371  0.41185811  0.58199672     1.00200
H2722       H  0.70424079  0.04411314  0.54229004     0.30000
O2723       O  0.71799318  0.03039834  0.52934155    -1.00900
H2724       H  0.79540757  0.45098092  0.54362712     0.30000
O2725       O  0.78143814  0.46392473  0.53016270    -1.03400
O2726       O  0.66393638  0.49920535  0.94358165    -0.80600
O2727       O  0.83725346  0.49203118  0.94322654    -0.80200
O2728       O  0.69998272  0.09212794  0.00099598    -0.78600
O2729       O  0.70008080  0.40123050  0.00176568    -0.81900
O2730       O  0.80147370  0.40057506  0.99569385    -0.79800
O2731       O  0.80096395  0.09195515  0.99451865    -0.78500
O2732       O  0.74752382  0.05095016  0.90388049    -0.80000
O2733       O  0.74684729  0.44081854  0.90384260    -0.81900
O2734       O  0.74667503  0.08955658  0.94284049    -0.78600
O2735       O  0.74840106  0.40215329  0.94267100    -0.81300
O2736       O  0.66369874  0.05079430  0.00107483    -0.77000
O2737       O  0.83666303  0.05018873  0.99400211    -0.77100
O2738       O  0.83707539  0.44242897  0.99689114    -0.76700
O2739       O  0.66397159  0.44268641  0.00077568    -0.80200
O2740       O  0.69959448  0.50021769  0.90179603    -0.79600
O2741       O  0.80087325  0.49115477  0.90196503    -0.78000
Eu2742     Eu  0.68855500  0.49679023  0.99771679     2.39800
Eu2743     Eu  0.81344038  0.49713383  0.99746666     2.39600
Eu2744     Eu  0.75018261  0.06321416  0.99748716     2.38400
Eu2745     Eu  0.75092818  0.42941204  0.99757058     2.39900
Eu2746     Eu  0.75020594  0.49604337  0.93020459     2.39800
O2747       O  0.78222604  0.46352464  0.96437456    -0.92400
O2748       O  0.71817955  0.02984284  0.96382693    -0.91300
C2749       C  0.67092516  0.50119958  0.91308133     1.02800
C2750       C  0.82964708  0.48941864  0.91292925     1.01500
C2751       C  0.67126742  0.08114892  0.00305739     1.00900
C2752       C  0.67130385  0.41226299  0.00285450     1.02900
C2753       C  0.83016450  0.41185291  0.99537178     1.01800
C2754       C  0.82965160  0.08071897  0.99261754     1.00700
C2755       C  0.74617840  0.08104913  0.91265239     1.00700
C2756       C  0.74667591  0.41057570  0.91241886     1.03300
H2757       H  0.79456616  0.04230414  0.94964791     0.30700
O2758       O  0.78088776  0.02922891  0.96330973    -1.04500
H2759       H  0.70395327  0.44947616  0.95113457     0.32800
O2760       O  0.71840462  0.46259926  0.96399759    -1.07100
N2761       N  0.75450672  0.10784817  0.60724202    -0.03000
C2762       C  0.75809050  0.14089118  0.60330284    -0.00400
C2763       C  0.76553077  0.15627077  0.63200585    -0.23300
C2764       C  0.76520845  0.13395975  0.65510880    -0.23500
C2765       C  0.75769499  0.10491356  0.64054214    -0.00500
H2766       H  0.76989349  0.18176448  0.63618411     0.13300
H2767       H  0.76933928  0.13887802  0.68050548     0.13300
N2768       N  0.75527890  0.38640769  0.60726683    -0.03000
C2769       C  0.75813782  0.35318162  0.60367605    -0.00400
C2770       C  0.76552378  0.33807368  0.63248038    -0.23300
C2771       C  0.76605156  0.36078919  0.65523949    -0.23500
C2772       C  0.75894504  0.38981446  0.64040349    -0.00500
H2773       H  0.76936207  0.31255196  0.63694782     0.13300
H2774       H  0.77013317  0.35612039  0.68066734     0.13300
N2775       N  0.74253738  0.38516298  0.88716423    -0.03000
C2776       C  0.73798104  0.35218405  0.89085811    -0.00400
C2777       C  0.72735401  0.33770948  0.86275322    -0.23300
C2778       C  0.72698640  0.36050320  0.83995023    -0.23500
C2779       C  0.73745675  0.38877084  0.85424278    -0.00500
H2780       H  0.72170933  0.31247338  0.85871408     0.13300
H2781       H  0.72096982  0.35636434  0.81479467     0.13300
N2782       N  0.74182076  0.10626578  0.88759343    -0.03000
C2783       C  0.73624237  0.10241861  0.85490186    -0.00400
C2784       C  0.72426012  0.13025357  0.84096965    -0.23300
C2785       C  0.72419930  0.15302966  0.86387975    -0.23500
C2786       C  0.73615788  0.13893733  0.89162369    -0.00500
H2787       H  0.71763234  0.13420355  0.81594411     0.13300
H2788       H  0.71756511  0.17807848  0.86008592     0.13300
O2789       O  0.49798736  0.15962047  0.55048580    -0.79700
O2790       O  0.49484134  0.33360159  0.55028282    -0.81200
O2791       O  0.55529865  0.24477620  0.59040624    -0.78200
O2792       O  0.94439533  0.24898252  0.59087338    -0.76600
O2793       O  0.90574210  0.24703187  0.55203337    -0.78400
O2794       O  0.59379912  0.24175029  0.55155825    -0.79400
O2795       O  0.49746849  0.29746370  0.59167360    -0.80700
O2796       O  0.49738597  0.19539523  0.59221362    -0.81000
Eu2797     Eu  0.50009159  0.24632902  0.56387793     2.39200
O2798       O  0.96600083  0.27848599  0.53025195    -0.88500
O2799       O  0.53350503  0.21429622  0.53042409    -0.92100
C2800       C  0.49636100  0.16667004  0.58095955     1.02600
C2801       C  0.49401132  0.32606743  0.58066952     1.02400
C2802       C  0.58542039  0.24226589  0.58177478     1.02400
C2803       C  0.91421243  0.24833850  0.58226865     1.00200
H2804       H  0.54607543  0.29215302  0.54440095     0.30000
O2805       O  0.53316221  0.27853317  0.53048867    -1.00900
H2806       H  0.95131914  0.20169003  0.54314642     0.30000
O2807       O  0.96525601  0.21543365  0.53036946    -1.03400
O2808       O  0.50826195  0.33107945  0.94071340    -0.80600
O2809       O  0.50512146  0.15882726  0.94162806    -0.80200
O2810       O  0.59748282  0.29643427  0.00001156    -0.78600
O2811       O  0.90543047  0.29634704  0.99448456    -0.81900
O2812       O  0.90537833  0.19488444  0.99474244    -0.79800
O2813       O  0.59697527  0.19486256  0.99881865    -0.78500
O2814       O  0.55648749  0.24581554  0.90176661    -0.80000
O2815       O  0.94634655  0.24266903  0.90337469    -0.81900
O2816       O  0.59494880  0.24713528  0.94084569    -0.78600
O2817       O  0.90754532  0.24350599  0.94208283    -0.81300
O2818       O  0.55573726  0.33216945  0.00001010    -0.77000
O2819       O  0.55523888  0.15915527  0.00185506    -0.77100
O2820       O  0.94708709  0.15936684  0.99043420    -0.76700
O2821       O  0.94710641  0.33216819  0.99571008    -0.80200
O2822       O  0.50599452  0.29518160  0.89911797    -0.79600
O2823       O  0.50344871  0.19431299  0.89972096    -0.78000
Eu2824     Eu  0.50170888  0.30785929  0.99534935     2.39800
Eu2825     Eu  0.50094908  0.18271015  0.99572960     2.39600
Eu2826     Eu  0.56878802  0.24558696  0.99618883     2.38400
Eu2827     Eu  0.93424443  0.24548426  0.99669066     2.39900
Eu2828     Eu  0.50151934  0.24500858  0.92807135     2.39800
O2829       O  0.96832802  0.21392091  0.96312163    -0.92400
O2830       O  0.53491004  0.27652321  0.96227364    -0.91300
C2831       C  0.50969917  0.32369820  0.91024999     1.02800
C2832       C  0.50590379  0.16579907  0.91110697     1.01500
C2833       C  0.58620882  0.32512356  0.00195026     1.00900
C2834       C  0.91657388  0.32513610  0.99412113     1.02900
C2835       C  0.91649414  0.16642411  0.99055669     1.01800
C2836       C  0.58572045  0.16644430  0.00277129     1.00700
C2837       C  0.58657767  0.24707304  0.91054447     1.00700
C2838       C  0.91608117  0.24235973  0.91194180     1.03300
H2839       H  0.54887582  0.19997000  0.94988489     0.30700
O2840       O  0.53503560  0.21377181  0.96264597    -1.04500
H2841       H  0.95493449  0.29058331  0.95010907     0.32800
O2842       O  0.96838047  0.27702764  0.96352345    -1.07100
N2843       N  0.88872398  0.24988291  0.60757885    -0.03000
C2844       C  0.85549048  0.25192334  0.60393438    -0.00400
C2845       C  0.83997990  0.25623335  0.63321133    -0.23300
C2846       C  0.86250281  0.25592978  0.65610716    -0.23500
C2847       C  0.89188728  0.25159197  0.64093031    -0.00500
H2848       H  0.81433806  0.25884861  0.63787368     0.13300
H2849       H  0.85755933  0.25833156  0.68172002     0.13300
N2850       N  0.61076144  0.23841573  0.60699681    -0.03000
C2851       C  0.64383155  0.23449103  0.60347479    -0.00400
C2852       C  0.65861894  0.22573188  0.63205133    -0.23300
C2853       C  0.63584621  0.22594699  0.65477515    -0.23500
C2854       C  0.60715507  0.23438976  0.63995604    -0.00500
H2855       H  0.68403928  0.22121301  0.63649878     0.13300
H2856       H  0.64038831  0.22208321  0.68020803     0.13300
N2857       N  0.61201567  0.24988399  0.88535055    -0.03000
C2858       C  0.60882375  0.25269667  0.85205700    -0.00400
C2859       C  0.63788539  0.26001735  0.83739112    -0.23300
C2860       C  0.66028814  0.26076529  0.86052988    -0.23500
C2861       C  0.64501380  0.25374337  0.88938075    -0.00500
H2862       H  0.64273279  0.26385525  0.81193956     0.13300
H2863       H  0.68576422  0.26503178  0.85629146     0.13300
N2864       N  0.89059761  0.23946385  0.88674580    -0.03000
C2865       C  0.89401712  0.23630254  0.85361622    -0.00400
C2866       C  0.86499901  0.22947969  0.83863040    -0.23300
C2867       C  0.84229409  0.22942238  0.86138621    -0.23500
C2868       C  0.85737856  0.23642647  0.89030039    -0.00500
H2869       H  0.86031561  0.22606152  0.81312076     0.13300
H2870       H  0.81677227  0.22571299  0.85680356     0.13300
N2871       N  0.64048411  0.13582254  0.00550716    -0.03000
C2872       C  0.64427876  0.10300403  0.01057859    -0.00400
C2873       C  0.61625714  0.08866996  0.02163735    -0.23300
C2874       C  0.59338176  0.11142660  0.02156480    -0.23500
C2875       C  0.60762445  0.13950836  0.01051171    -0.00500
H2876       H  0.61228903  0.06349751  0.02770724     0.13300
H2877       H  0.56820950  0.10731098  0.02752597     0.13300
O2878       O  0.75236863  0.19264261  0.58191369    -0.79700
O2879       O  0.74601085  0.19125773  0.91082270    -0.81200
O2880       O  0.69593215  0.15250981  0.00030522    -0.78200
O2881       O  0.80599640  0.15226306  0.99483035    -0.76600
O2882       O  0.84483947  0.19097429  0.99479957    -0.78400
O2883       O  0.65718090  0.19133331  0.00063495    -0.79400
O2884       O  0.74676918  0.14997078  0.94716002    -0.80700
O2885       O  0.75152772  0.15066542  0.54656103    -0.81000
Eu2886     Eu  0.75105683  0.17877217  0.99753921     2.39200
O2887       O  0.78430245  0.21230686  0.96562201    -0.88500
O2888       O  0.71593837  0.21306592  0.52813734    -0.92100
C2889       C  0.75326477  0.16211788  0.57514870     1.02600
C2890       C  0.74416305  0.16089915  0.91844944     1.02400
C2891       C  0.66573637  0.16110315  0.00142184     1.02400
C2892       C  0.83621087  0.16078013  0.99387352     1.00200
H2893       H  0.70298357  0.19943451  0.95287555     0.30000
O2894       O  0.71691833  0.21249668  0.96628508    -1.00900
H2895       H  0.79710433  0.20004829  0.54099490     0.30000
O2896       O  0.78338024  0.21321766  0.52744746    -1.03400
O2897       O  0.74706415  0.29990697  0.91081880    -0.80600
O2898       O  0.75187552  0.30106782  0.58244378    -0.80200
O2899       O  0.65490482  0.24890037  0.94649998    -0.78600
O2900       O  0.84726551  0.24382343  0.94671283    -0.81900
O2901       O  0.84574933  0.24773239  0.54675114    -0.79800
O2902       O  0.65396598  0.24373397  0.54760275    -0.78500
O2903       O  0.69623963  0.34064527  0.99982590    -0.80000
O2904       O  0.80600223  0.34002335  0.99616566    -0.81900
O2905       O  0.65757953  0.30178350  0.00015407    -0.78600
O2906       O  0.84476558  0.30120654  0.99621100    -0.81300
O2907       O  0.69673346  0.24764932  0.91095334    -0.77000
O2908       O  0.69595811  0.24220333  0.58296695    -0.77100
O2909       O  0.80371970  0.24871328  0.58195593    -0.76700
O2910       O  0.80518511  0.24212636  0.91149373    -0.80200
O2911       O  0.74686265  0.34165885  0.94664338    -0.79600
O2912       O  0.75186088  0.34310249  0.54710375    -0.78000
Eu2913     Eu  0.75066284  0.24552639  0.93499003     2.39800
Eu2914     Eu  0.74967741  0.24672653  0.55830731     2.39600
Eu2915     Eu  0.68342431  0.24653064  0.99762861     2.38400
Eu2916     Eu  0.81827518  0.24598468  0.99693006     2.39900
Eu2917     Eu  0.75092545  0.31344198  0.99705890     2.39800
O2918       O  0.78287994  0.28026084  0.52764147    -0.92400
O2919       O  0.71750959  0.27928897  0.96581441    -0.91300
C2920       C  0.74500815  0.33038099  0.91806076     1.02800
C2921       C  0.75321013  0.33165611  0.57567142     1.01500
C2922       C  0.66626719  0.24942747  0.91776765     1.00900
C2923       C  0.83580126  0.24142373  0.91823634     1.02900
C2924       C  0.83427624  0.24910738  0.57537227     1.01800
C2925       C  0.66543478  0.24096901  0.57602843     1.00700
C2926       C  0.66605752  0.33200478  0.00083161     1.00700
C2927       C  0.83623751  0.33146233  0.99590422     1.03300
H2928       H  0.70291813  0.29355588  0.54316964     0.30700
O2929       O  0.71591189  0.28065964  0.52860396    -1.04500
H2930       H  0.79748643  0.29269887  0.95057192     0.32800
O2931       O  0.78448731  0.27963421  0.96495321    -1.07100
N2932       N  0.86165920  0.35684367  0.99371510    -0.03000
C2933       C  0.85822834  0.39014036  0.99113477    -0.00400
C2934       C  0.88713193  0.40508320  0.98379627    -0.23300
C2935       C  0.90973944  0.38219733  0.98281583    -0.23500
C2936       C  0.89481065  0.35322219  0.98995567    -0.00500
H2937       H  0.89171405  0.43056865  0.97994018     0.13300
H2938       H  0.93511688  0.38666350  0.97811865     0.13300
N2939       N  0.64060741  0.35710389  0.00449264    -0.03000
C2940       C  0.64379784  0.39023353  0.00847541    -0.00400
C2941       C  0.61496139  0.40453545  0.01724762    -0.23300
C2942       C  0.59256422  0.38131265  0.01763823    -0.23500
C2943       C  0.60764920  0.35292152  0.00863881    -0.00500
H2944       H  0.61021428  0.42985835  0.02187979     0.13300
H2945       H  0.56714687  0.38526068  0.02259972     0.13300
N2946       N  0.86137785  0.13541518  0.98995778    -0.03000
C2947       C  0.89430737  0.13897841  0.98464600    -0.00400
C2948       C  0.90849863  0.11028803  0.97521672    -0.23300
C2949       C  0.88560887  0.08754204  0.97625601    -0.23500
C2950       C  0.85739755  0.10235270  0.98618457    -0.00500
H2951       H  0.93364378  0.10582310  0.96940562     0.13300
H2952       H  0.88961404  0.06216084  0.97115350     0.13300
N2953       N  0.99324288  0.63484378  0.13519128    -0.03000
C2954       C  0.49412946  0.60051970  0.13855115    -0.00400
C2955       C  0.49032754  0.58514447  0.10916053    -0.23300
C2956       C  0.49087237  0.60779222  0.08640435    -0.23500
C2957       C  0.49492621  0.63714177  0.10176934    -0.00500
H2958       H  0.48809234  0.55949845  0.10433972     0.13300
H2959       H  0.48902742  0.60291758  0.06073085     0.13300
O2960       O  0.49879132  0.68952070  0.15220096    -0.79700
O2961       O  0.50275575  0.69041420  0.34021115    -0.81200
O2962       O  0.55151103  0.64932981  0.24130775    -0.78200
O2963       O  0.95014025  0.65020706  0.25014441    -0.76600
O2964       O  0.91389629  0.69144347  0.24699767    -0.78400
O2965       O  0.58776935  0.69065718  0.24381430    -0.79400
O2966       O  0.50319175  0.65162024  0.30144080    -0.80700
O2967       O  0.49887060  0.65073921  0.19094720    -0.81000
Eu2968     Eu  0.50103777  0.67751544  0.24614764     2.39200
O2969       O  0.96862576  0.71305548  0.27858874    -0.88500
O2970       O  0.53241535  0.71169436  0.21328867    -0.92100
C2971       C  0.49828062  0.65926045  0.16067276     1.02600
C2972       C  0.50348320  0.66024589  0.33164940     1.02400
C2973       C  0.58026733  0.66035780  0.24066388     1.02400
C2974       C  0.92131048  0.66114700  0.25012902     1.00200
H2975       H  0.54717964  0.69825734  0.29330884     0.30000
O2976       O  0.53283214  0.71119373  0.28013494    -1.00900
H2977       H  0.95404147  0.69893998  0.19872586     0.30000
O2978       O  0.96821094  0.71222421  0.21175854    -1.03400
O2979       O  0.50206728  0.79999862  0.33952655    -0.80600
O2980       O  0.50030936  0.79951291  0.15257175    -0.80200
O2981       O  0.58659984  0.74952627  0.30117470    -0.78600
O2982       O  0.91317536  0.74384072  0.29952975    -0.81900
O2983       O  0.91382145  0.74775104  0.19065252    -0.79800
O2984       O  0.58786794  0.74233014  0.19219805    -0.78500
O2985       O  0.55033334  0.84164845  0.24779296    -0.80000
O2986       O  0.94917074  0.84214184  0.24269660    -0.81900
O2987       O  0.58568828  0.79972508  0.24716837    -0.78600
O2988       O  0.91336184  0.80042456  0.24187942    -0.81300
O2989       O  0.55025851  0.74955342  0.34248364    -0.77000
O2990       O  0.55179520  0.74119816  0.15069792    -0.77100
O2991       O  0.94959766  0.74840688  0.14896500    -0.76700
O2992       O  0.94867205  0.74450859  0.34144133    -0.80200
O2993       O  0.50073973  0.83889395  0.30094676    -0.79600
O2994       O  0.49845652  0.83826012  0.19129831    -0.78000
Eu2995     Eu  0.50031833  0.74497776  0.31341168     2.39800
Eu2996     Eu  0.50110211  0.74452343  0.17903688     2.39600
Eu2997     Eu  0.56330987  0.74491633  0.24648520     2.38400
Eu2998     Eu  0.93742494  0.74600580  0.24519169     2.39900
Eu2999     Eu  0.50022731  0.81212300  0.24620111     2.39800
O3000       O  0.96886705  0.77897634  0.21230194    -0.92400
O3001       O  0.53163163  0.77800252  0.27925121    -0.91300
C3002       C  0.50221995  0.83020982  0.33105999     1.02800
C3003       C  0.49860739  0.82967687  0.16114074     1.01500
C3004       C  0.57893190  0.75195358  0.33150631     1.00900
C3005       C  0.92002588  0.74278741  0.33011773     1.02900
C3006       C  0.92091034  0.74936772  0.16016811     1.01800
C3007       C  0.58054510  0.74018572  0.16175053     1.00700
C3008       C  0.57897376  0.83027904  0.24806919     1.00700
C3009       C  0.92052823  0.83094691  0.24058715     1.03300
H3010       H  0.54672060  0.79181117  0.19923981     0.30700
O3011       O  0.53276500  0.77862742  0.21258493    -1.04500
H3012       H  0.95333180  0.79351505  0.29200443     0.32800
O3013       O  0.96747468  0.78026713  0.27895187    -1.07100
N3014       N  0.50647951  0.85532548  0.35633780    -0.03000
C3015       C  0.51257328  0.85114386  0.38893700    -0.00400
C3016       C  0.52480308  0.87879057  0.40300140    -0.23300
C3017       C  0.52436234  0.90185089  0.38041775    -0.23500
C3018       C  0.51213349  0.88807476  0.35261318    -0.00500
H3019       H  0.53196034  0.88241494  0.42793325     0.13300
H3020       H  0.53123929  0.92680407  0.38440591     0.13300
N3021       N  0.00327140  0.63626974  0.35676619    -0.03000
C3022       C  0.51049125  0.60204796  0.35339293    -0.00400
C3023       C  0.51666140  0.58711149  0.38254878    -0.23300
C3024       C  0.51415096  0.60957561  0.40548408    -0.23500
C3025       C  0.50697104  0.63842499  0.39033668    -0.00500
H3026       H  0.52093188  0.56171527  0.38713706     0.13300
H3027       H  0.51673115  0.60487970  0.43111088     0.13300
N3028       N  0.49520861  0.85494115  0.13588912    -0.03000
C3029       C  0.49174890  0.85132903  0.10281189    -0.00400
C3030       C  0.48333658  0.87999192  0.08794349    -0.23300
C3031       C  0.48247959  0.90265123  0.11078370    -0.23500
C3032       C  0.49075266  0.88793833  0.13954988    -0.00500
H3033       H  0.47890416  0.88442695  0.06251153     0.13300
H3034       H  0.47738348  0.92795573  0.10637074     0.13300
O3035       O  0.49947739  0.54859515  0.16023248    -0.79700
O3036       O  0.50344718  0.55000172  0.33246271    -0.81200
O3037       O  0.94584511  0.58976244  0.24879206    -0.78200
O3038       O  0.55532690  0.58902323  0.24256113    -0.76600
O3039       O  0.59400930  0.55022541  0.24325071    -0.78400
O3040       O  0.90730675  0.55077827  0.25049023    -0.79400
O3041       O  0.50600044  0.59153069  0.29660622    -0.80700
O3042       O  0.49580394  0.59045955  0.19560518    -0.81000
Eu3043     Eu  0.50055166  0.56234395  0.24654587     2.39200
O3044       O  0.53332588  0.52810049  0.27800725    -0.88500
O3045       O  0.96809758  0.52887677  0.21589709    -0.92100
C3046       C  0.49689861  0.57909119  0.16694771     1.02600
C3047       C  0.50609449  0.58041351  0.32536447     1.02400
C3048       C  0.91568395  0.58105288  0.25032763     1.02400
C3049       C  0.58551412  0.58041441  0.24186003     1.00200
H3050       H  0.95474383  0.54260916  0.29367584     0.30000
O3051       O  0.96797429  0.52970378  0.27935712    -1.00900
H3052       H  0.54701797  0.54149514  0.19997329     0.30000
O3053       O  0.53392907  0.52858941  0.21439415    -1.03400
O3054       O  0.50437206  0.94073797  0.33326917    -0.80600
O3055       O  0.49691592  0.94025656  0.16020363    -0.80200
O3056       O  0.90337575  0.99299702  0.29587286    -0.78600
O3057       O  0.59576952  0.99996080  0.29670172    -0.81900
O3058       O  0.59641368  0.99183495  0.19581489    -0.79800
O3059       O  0.90494668  0.00151283  0.19513193    -0.78500
O3060       O  0.94506896  0.90244190  0.24379537    -0.80000
O3061       O  0.55516693  0.90177058  0.24569828    -0.81900
O3062       O  0.90655129  0.94145042  0.24319692    -0.78600
O3063       O  0.59391432  0.94053229  0.24729040    -0.81300
O3064       O  0.94536724  0.99302272  0.33119897    -0.77000
O3065       O  0.94649183  0.99907603  0.15921441    -0.77100
O3066       O  0.55477270  0.99092039  0.15997045    -0.76700
O3067       O  0.55439331  0.00089335  0.33295982    -0.80200
O3068       O  0.50171708  0.89935024  0.29705400    -0.79600
O3069       O  0.49783981  0.89861794  0.19601788    -0.78000
Eu3070     Eu  0.49980948  0.99523771  0.30955023     2.39800
Eu3071     Eu  0.50011389  0.99484479  0.18374440     2.39600
Eu3072     Eu  0.93278263  0.99666587  0.24600091     2.38400
Eu3073     Eu  0.56722418  0.99538851  0.24605744     2.39900
Eu3074     Eu  0.49984360  0.92792573  0.24637897     2.39800
O3075       O  0.53347176  0.96153070  0.21463818    -0.92400
O3076       O  0.96633016  0.96269512  0.27748576    -0.91300
C3077       C  0.50497151  0.91028451  0.32571620     1.02800
C3078       C  0.49593886  0.90973877  0.16731734     1.01500
C3079       C  0.91479712  0.99163301  0.32444611     1.00900
C3080       C  0.58478959  0.00278855  0.32539943     0.99300
C3081       C  0.58529286  0.98955208  0.16715477     1.01800
C3082       C  0.91614637  0.00178059  0.16641090     1.00700
C3083       C  0.91496687  0.91117221  0.24262200     1.00700
C3084       C  0.58539464  0.91032551  0.24669427     1.03300
H3085       H  0.95282537  0.95058284  0.20015978     0.30700
O3086       O  0.96642584  0.96336311  0.21414671    -1.04500
H3087       H  0.54726556  0.94931792  0.29168523     0.32800
O3088       O  0.53342259  0.96214864  0.27798332    -1.07100
N3089       N  0.61085770  0.60554527  0.23760999    -0.03000
C3090       C  0.60743159  0.63855902  0.23355617    -0.00400
C3091       C  0.63573329  0.65294298  0.22336657    -0.23300
C3092       C  0.65827012  0.62988490  0.22244358    -0.23500
C3093       C  0.64366794  0.60163980  0.23249349    -0.00500
H3094       H  0.64009784  0.67826088  0.21847736     0.13300
H3095       H  0.68352051  0.63388433  0.21675389     0.13300
N3096       N  0.89024994  0.60630164  0.25344602    -0.03000
C3097       C  0.89370038  0.63949128  0.25629306    -0.00400
C3098       C  0.86504894  0.65437772  0.26470557    -0.23300
C3099       C  0.84239210  0.63151763  0.26563714    -0.23500
C3100       C  0.85720593  0.60268886  0.25775823    -0.00500
H3101       H  0.86059867  0.67986526  0.26875463     0.13300
H3102       H  0.81702136  0.63595562  0.27031427     0.13300
N3103       N  0.88962731  0.88599653  0.23886974    -0.03000
C3104       C  0.85668258  0.88994289  0.23472618    -0.00400
C3105       C  0.84171443  0.86145097  0.22593175    -0.23300
C3106       C  0.86427959  0.83844021  0.22593240    -0.23500
C3107       C  0.89300314  0.85289339  0.23479980    -0.00500
H3108       H  0.81631036  0.85732815  0.22119612     0.13300
H3109       H  0.85969067  0.81312165  0.22109395     0.13300
N3110       N  0.61083504  0.88493896  0.24796960    -0.03000
C3111       C  0.60741614  0.85166122  0.25007672    -0.00400
C3112       C  0.63682225  0.83625826  0.25350985    -0.23300
C3113       C  0.65957992  0.85886408  0.25266105    -0.23500
C3114       C  0.64421507  0.88826568  0.24904134    -0.00500
H3115       H  0.64165941  0.81063237  0.25595411     0.13300
H3116       H  0.68524007  0.85394762  0.25447480     0.13300
N3117       N  0.86144840  0.00386973  0.13530777    -0.03000
C3118       C  0.89458089  0.00726103  0.13868690    -0.00400
C3119       C  0.90942545  0.01516181  0.10986127    -0.23300
C3120       C  0.88652294  0.01574224  0.08725706    -0.23500
C3121       C  0.85781011  0.00769490  0.10225201    -0.00500
H3122       H  0.93489750  0.01894132  0.10524046     0.13300
H3123       H  0.89087061  0.02019060  0.06180921     0.13300
O3124       O  0.69570407  0.58189331  0.24254477    -0.79700
O3125       O  0.69627196  0.91011346  0.24592176    -0.81200
O3126       O  0.65684244  0.99354324  0.19113461    -0.78200
O3127       O  0.65628836  0.99945350  0.30081979    -0.76600
O3128       O  0.69510769  0.00017685  0.33954040    -0.78400
O3129       O  0.69566996  0.99301891  0.15239477    -0.79400
O3130       O  0.65422746  0.94535659  0.24723083    -0.80700
O3131       O  0.65424925  0.54580410  0.24144174    -0.81000
Eu3132     Eu  0.68307439  0.99604504  0.24604795     2.39200
O3133       O  0.71673732  0.96445572  0.27954285    -0.88500
O3134       O  0.71705730  0.52755324  0.21364366    -0.92100
C3135       C  0.66536383  0.57446736  0.23982155     1.02600
C3136       C  0.66566638  0.91672624  0.24696579     1.02400
C3137       C  0.66545410  0.99223316  0.16100457     1.02400
C3138       C  0.66490162  0.00096258  0.33098128     1.00200
H3139       H  0.70426054  0.95027660  0.19916203     0.30000
O3140       O  0.71714478  0.96456503  0.21240321    -1.00900
H3141       H  0.70324225  0.54262635  0.29333067     0.30000
O3142       O  0.71643135  0.52818987  0.28051027    -1.03400
O3143       O  0.80491408  0.91056767  0.24347832    -0.80600
O3144       O  0.80499966  0.58199093  0.25029082    -0.80200
O3145       O  0.75464295  0.94566585  0.15017331    -0.78600
O3146       O  0.74626099  0.94552018  0.34154309    -0.81900
O3147       O  0.75507241  0.54728653  0.34228865    -0.79800
O3148       O  0.74852470  0.54772775  0.15154479    -0.78500
O3149       O  0.84470376  0.00002105  0.19092879    -0.80000
O3150       O  0.84349193  0.99425147  0.30092199    -0.81900
O3151       O  0.80592682  0.99910270  0.15221172    -0.78600
O3152       O  0.80481496  0.99454756  0.33979757    -0.81300
O3153       O  0.75338712  0.90982475  0.19181068    -0.77000
O3154       O  0.74997552  0.58326479  0.19338690    -0.77100
O3155       O  0.75176192  0.58339112  0.30092739    -0.76700
O3156       O  0.74750927  0.90934892  0.30013360    -0.80200
O3157       O  0.84641756  0.94651911  0.24104484    -0.79600
O3158       O  0.84671980  0.54626192  0.25147976    -0.78000
Eu3159     Eu  0.75056004  0.93405912  0.24607275     2.39800
Eu3160     Eu  0.75030228  0.55854816  0.24705468     2.39600
Eu3161     Eu  0.75073531  0.99636124  0.17867970     2.38400
Eu3162     Eu  0.75006214  0.99628150  0.31317690     2.39900
Eu3163     Eu  0.81769729  0.99692903  0.24572069     2.39800
O3164       O  0.78348505  0.52752243  0.28024067    -0.92400
O3165       O  0.78378428  0.96516574  0.21283124    -0.91300
C3166       C  0.83525638  0.91776394  0.24066675     1.02800
C3167       C  0.83548796  0.57492655  0.25243467     1.01500
C3168       C  0.75546077  0.91692984  0.16135268     1.00900
C3169       C  0.74508623  0.91673374  0.33052816     1.02900
C3170       C  0.75491961  0.57608394  0.33123630     1.01800
C3171       C  0.74847521  0.57645174  0.16288146     1.00700
C3172       C  0.83616206  0.00039790  0.16070173     1.00700
C3173       C  0.83496219  0.99365476  0.33113367     1.03300
H3174       H  0.79752196  0.54241700  0.20060847     0.30700
O3175       O  0.78430091  0.52818129  0.21355216    -1.04500
H3176       H  0.79722940  0.95049638  0.29259199     0.32800
O3177       O  0.78414442  0.96477882  0.27950756    -1.07100
N3178       N  0.63972878  0.00555062  0.35617999    -0.03000
C3179       C  0.64361801  0.01049229  0.38905116    -0.00400
C3180       C  0.61550828  0.02114895  0.40343351    -0.23300
C3181       C  0.59260890  0.02110633  0.38066068    -0.23500
C3182       C  0.60683545  0.01046594  0.35242472    -0.00500
H3183       H  0.61141628  0.02655842  0.42868566     0.13300
H3184       H  0.56738254  0.02645481  0.38495426     0.13300
N3185       N  0.86029257  0.99038334  0.35633424    -0.03000
C3186       C  0.89337622  0.98685730  0.35254577    -0.00400
C3187       C  0.90848127  0.97953101  0.38135632    -0.23300
C3188       C  0.88585935  0.97968985  0.40427924    -0.23500
C3189       C  0.85686365  0.98695987  0.38948956    -0.00500
H3190       H  0.93396117  0.97531037  0.38569800     0.13300
H3191       H  0.89051139  0.97560962  0.42971761     0.13300
N3192       N  0.64018038  0.98784435  0.13592087    -0.03000
C3193       C  0.64398682  0.98307866  0.10306577    -0.00400
C3194       C  0.61563383  0.97329825  0.08851570    -0.23300
C3195       C  0.59276239  0.97335958  0.11126542    -0.23500
C3196       C  0.60720940  0.98322561  0.13966983    -0.00500
H3197       H  0.61144576  0.96814606  0.06323029     0.13300
H3198       H  0.56749435  0.96796555  0.10698977     0.13300
O3199       O  0.83702577  0.99958844  0.05034805    -0.79700
O3200       O  0.66385549  0.99268907  0.05114682    -0.81200
O3201       O  0.74902422  0.55241550  0.09142690    -0.78200
O3202       O  0.75304020  0.94089472  0.09008816    -0.76600
O3203       O  0.75116306  0.90218731  0.05124969    -0.78400
O3204       O  0.75068246  0.59107683  0.05259588    -0.79400
O3205       O  0.70019217  0.99051403  0.09237603    -0.80700
O3206       O  0.80148695  0.00027950  0.09220403    -0.81000
Eu3207     Eu  0.75073639  0.99591234  0.06413991     2.39200
O3208       O  0.71942254  0.96343485  0.02932458    -0.88500
O3209       O  0.78302010  0.53077459  0.03125277    -0.92100
C3210       C  0.83007321  0.00172344  0.08079912     1.02600
C3211       C  0.67138502  0.98974418  0.08139105     1.02400
C3212       C  0.74944459  0.58263648  0.08282569     1.02400
C3213       C  0.75281515  0.91074089  0.08143504     1.00200
H3214       H  0.70485351  0.54388932  0.04452898     0.30000
O3215       O  0.71903243  0.53070915  0.03141564    -1.00900
H3216       H  0.79632659  0.94880543  0.04316210     0.30000
O3217       O  0.78194165  0.96190176  0.03020483    -1.03400
O3218       O  0.66315408  0.99992195  0.44126941    -0.80600
O3219       O  0.83601482  0.99379202  0.44166740    -0.80200
O3220       O  0.69869519  0.59245792  0.49172700    -0.78600
O3221       O  0.69892367  0.90068411  0.50207894    -0.81900
O3222       O  0.79952613  0.90039650  0.49336951    -0.79800
O3223       O  0.80013556  0.59292550  0.49998781    -0.78500
O3224       O  0.75335146  0.55177895  0.40264949    -0.80000
O3225       O  0.74663715  0.94134875  0.40203051    -0.81900
O3226       O  0.75124780  0.59060098  0.44135863    -0.78600
O3227       O  0.74653582  0.90286258  0.44106740    -0.81300
O3228       O  0.66267040  0.55104685  0.49525047    -0.77000
O3229       O  0.83628943  0.55147330  0.49904674    -0.77100
O3230       O  0.83511034  0.94225956  0.49435756    -0.76700
O3231       O  0.66258964  0.94196473  0.50068247    -0.80200
O3232       O  0.69949624  0.00161342  0.40000833    -0.79600
O3233       O  0.80016886  0.99191981  0.40006500    -0.78000
Eu3234     Eu  0.68716120  0.99630275  0.49585820     2.39800
Eu3235     Eu  0.81253338  0.99716679  0.49623132     2.39600
Eu3236     Eu  0.74957902  0.56441722  0.49660825     2.38400
Eu3237     Eu  0.74939822  0.92948339  0.49624479     2.39900
Eu3238     Eu  0.74960906  0.99598261  0.42879827     2.39800
O3239       O  0.78127632  0.96340472  0.46325359    -0.92400
O3240       O  0.71889885  0.52978180  0.46363552    -0.91300
C3241       C  0.67071733  0.00290508  0.41094742     1.02800
C3242       C  0.82892247  0.99157237  0.41121191     1.01500
C3243       C  0.66990816  0.58134619  0.49192731     1.00900
C3244       C  0.67009867  0.91161880  0.50368076     1.02900
C3245       C  0.82814899  0.91176158  0.49255476     1.01800
C3246       C  0.82888435  0.58186974  0.50116362     1.00700
C3247       C  0.75299305  0.58200948  0.41118203     1.00700
C3248       C  0.74568828  0.91124470  0.41077138     1.03300
H3249       H  0.79627008  0.54385975  0.44979408     0.30700
O3250       O  0.78191961  0.53087259  0.46285569    -1.04500
H3251       H  0.70270765  0.94916694  0.44918907     0.32800
O3252       O  0.71715480  0.96227881  0.46209193    -1.07100
N3253       N  0.74754671  0.60814849  0.10811550    -0.03000
C3254       C  0.74540144  0.64142998  0.10453462    -0.00400
C3255       C  0.74046697  0.65681168  0.13377689    -0.23300
C3256       C  0.74043730  0.63414696  0.15659233    -0.23500
C3257       C  0.74536167  0.60480840  0.14140652    -0.00500
H3258       H  0.73760714  0.68242942  0.13844763     0.13300
H3259       H  0.73758503  0.63898084  0.18218056     0.13300
N3260       N  0.75640196  0.88547345  0.10661680    -0.03000
C3261       C  0.76038558  0.85248917  0.10280284    -0.00400
C3262       C  0.76939571  0.83769765  0.13131463    -0.23300
C3263       C  0.76949069  0.86042889  0.15420797    -0.23500
C3264       C  0.76076313  0.88911579  0.13961862    -0.00500
H3265       H  0.77431357  0.81233497  0.13551389     0.13300
H3266       H  0.77441285  0.85602063  0.17952336     0.13300
N3267       N  0.74182634  0.88591317  0.38559463    -0.03000
C3268       C  0.73682279  0.85307892  0.38954365    -0.00400
C3269       C  0.72797676  0.83833690  0.36095678    -0.23300
C3270       C  0.72896233  0.86084034  0.33787994    -0.23500
C3271       C  0.73842176  0.88933552  0.35242073    -0.00500
H3272       H  0.72304343  0.81302612  0.35673885     0.13300
H3273       H  0.72439993  0.85634363  0.31247864     0.13300
N3274       N  0.75629763  0.60734601  0.38592485    -0.03000
C3275       C  0.76064284  0.60375553  0.35292798    -0.00400
C3276       C  0.76913501  0.63247204  0.33824091    -0.23300
C3277       C  0.76845376  0.65530307  0.36099405    -0.23500
C3278       C  0.75965156  0.64045228  0.38955537    -0.00500
H3279       H  0.77404428  0.63684434  0.31290279     0.13300
H3280       H  0.77288320  0.68074384  0.35666181     0.13300
O3281       O  0.49898054  0.65896513  0.04964588    -0.79700
O3282       O  0.49768407  0.83052320  0.05081217    -0.81200
O3283       O  0.55559049  0.74255976  0.09016907    -0.78200
O3284       O  0.94511694  0.74620666  0.08893948    -0.76600
O3285       O  0.90664437  0.74712084  0.04994258    -0.78400
O3286       O  0.59418031  0.74312264  0.05121976    -0.79400
O3287       O  0.49908088  0.79486158  0.09249696    -0.80700
O3288       O  0.49873902  0.69401358  0.09189158    -0.81000
Eu3289     Eu  0.50085741  0.74461453  0.06331543     2.39200
O3290       O  0.96765125  0.77688727  0.02882287    -0.88500
O3291       O  0.53457477  0.71344762  0.02918330    -0.92100
C3292       C  0.49802564  0.66547808  0.08031100     1.02600
C3293       C  0.49693175  0.82348330  0.08127091     1.02400
C3294       C  0.58574744  0.74204115  0.08146775     1.02400
C3295       C  0.91500474  0.74739264  0.08019565     1.00200
H3296       H  0.54723495  0.79050024  0.04390519     0.30000
O3297       O  0.53423116  0.77686127  0.03007846    -1.00900
H3298       H  0.95293951  0.69962830  0.04112483     0.30000
O3299       O  0.96686685  0.71356767  0.02857959    -1.03400
O3300       O  0.50484106  0.83148898  0.44146312    -0.80600
O3301       O  0.49992422  0.65959003  0.44232198    -0.80200
O3302       O  0.59469758  0.79727723  0.50231839    -0.78600
O3303       O  0.90326904  0.79762389  0.49282820    -0.81900
O3304       O  0.90309598  0.69703472  0.50038710    -0.79800
O3305       O  0.59465639  0.69565575  0.49228230    -0.78500
O3306       O  0.55415694  0.74932076  0.40303391    -0.80000
O3307       O  0.94382732  0.74619025  0.40183332    -0.81900
O3308       O  0.59294945  0.75044472  0.44177468    -0.78600
O3309       O  0.90514524  0.74391400  0.44062457    -0.81300
O3310       O  0.55349773  0.83376385  0.50190888    -0.77000
O3311       O  0.55326557  0.65942922  0.49303541    -0.77100
O3312       O  0.94456840  0.66098785  0.49831834    -0.76700
O3313       O  0.94516801  0.83321421  0.49395062    -0.80200
O3314       O  0.50044073  0.79584958  0.39984430    -0.79600
O3315       O  0.50088511  0.69516585  0.40049222    -0.78000
Eu3316     Eu  0.49939663  0.80907712  0.49645112     2.39800
Eu3317     Eu  0.49914661  0.68359052  0.49665854     2.39600
Eu3318     Eu  0.56634679  0.74653736  0.49655019     2.38400
Eu3319     Eu  0.93191160  0.74737804  0.49549578     2.39900
Eu3320     Eu  0.49904023  0.74593231  0.42925090     2.39800
O3321       O  0.96563034  0.71528188  0.46242530    -0.92400
O3322       O  0.53256921  0.77794440  0.46298797    -0.91300
C3323       C  0.50493294  0.82422991  0.41094895     1.02800
C3324       C  0.50161142  0.66647561  0.41179932     1.01500
C3325       C  0.58384018  0.82611115  0.50436748     1.00900
C3326       C  0.91461248  0.82623235  0.49228304     1.02900
C3327       C  0.91418939  0.66827124  0.50096384     1.01800
C3328       C  0.58363476  0.66685957  0.49085395     1.00700
C3329       C  0.58433696  0.75097952  0.41158134     1.00700
C3330       C  0.91363642  0.74437630  0.41037786     1.03300
H3331       H  0.54579534  0.70151815  0.44946805     0.30700
O3332       O  0.53245044  0.71487770  0.46318302    -1.04500
H3333       H  0.95284939  0.79309148  0.44822653     0.32800
O3334       O  0.96574149  0.77920954  0.46191587    -1.07100
N3335       N  0.88962287  0.75087020  0.10538707    -0.03000
C3336       C  0.85666940  0.75545632  0.10166704    -0.00400
C3337       C  0.84189231  0.76393978  0.13034205    -0.23300
C3338       C  0.86452106  0.76331016  0.15321218    -0.23500
C3339       C  0.89313392  0.75453572  0.13848744    -0.00500
H3340       H  0.81660141  0.76914254  0.13464444     0.13300
H3341       H  0.86012187  0.76809105  0.17857508     0.13300
N3342       N  0.61120553  0.73860585  0.10659565    -0.03000
C3343       C  0.64420779  0.73488621  0.10254691    -0.00400
C3344       C  0.65933728  0.72599421  0.13091918    -0.23300
C3345       C  0.63682330  0.72574687  0.15400502    -0.23500
C3346       C  0.60799268  0.73445437  0.13969792    -0.00500
H3347       H  0.68479638  0.72130318  0.13489535     0.13300
H3348       H  0.64152325  0.72100288  0.17929297     0.13300
N3349       N  0.60949620  0.75532012  0.38629062    -0.03000
C3350       C  0.60573871  0.76010125  0.35340332    -0.00400
C3351       C  0.63385589  0.77073977  0.33896970    -0.23300
C3352       C  0.65675329  0.77033781  0.36167404    -0.23500
C3353       C  0.64238422  0.76002120  0.38994193    -0.00500
H3354       H  0.63797201  0.77628352  0.31370154     0.13300
H3355       H  0.68203440  0.77529590  0.35734962     0.13300
N3356       N  0.88830639  0.74154891  0.38496136    -0.03000
C3357       C  0.89198038  0.73795780  0.35180258    -0.00400
C3358       C  0.86309043  0.73048680  0.33685123    -0.23300
C3359       C  0.84018529  0.73103306  0.35950195    -0.23500
C3360       C  0.85505306  0.73854915  0.38840706    -0.00500
H3361       H  0.85865209  0.72607740  0.31142330     0.13300
H3362       H  0.81471088  0.72706800  0.35491691     0.13300
N3363       N  0.63841671  0.63589432  0.48909596    -0.03000
C3364       C  0.64216127  0.60281844  0.48571032    -0.00400
C3365       C  0.61367972  0.58791487  0.47679422    -0.23300
C3366       C  0.59092855  0.61072365  0.47565456    -0.23500
C3367       C  0.60546522  0.63943699  0.48447355    -0.00500
H3368       H  0.60932703  0.56243494  0.47290642     0.13300
H3369       H  0.56562596  0.60625899  0.47059194     0.13300
O3370       O  0.74930669  0.69332289  0.08255073    -0.79700
O3371       O  0.75132008  0.69243572  0.41011799    -0.81200
O3372       O  0.69377211  0.65273745  0.49406773    -0.78200
O3373       O  0.80399995  0.65322484  0.49890463    -0.76600
O3374       O  0.84267478  0.69211752  0.49826671    -0.78400
O3375       O  0.65495887  0.69146009  0.49324224    -0.79400
O3376       O  0.75228065  0.65077547  0.44594671    -0.80700
O3377       O  0.74897890  0.65118776  0.04737420    -0.81000
Eu3378     Eu  0.74871075  0.67935218  0.49656116     2.39200
O3379       O  0.78165337  0.71348673  0.46484532    -0.88500
O3380       O  0.71658799  0.71320721  0.02718597    -0.92100
C3381       C  0.74836653  0.66273671  0.07600409     1.02600
C3382       C  0.75348489  0.66200897  0.41725638     1.02400
C3383       C  0.66357668  0.66125460  0.49279683     1.02400
C3384       C  0.83420645  0.66190437  0.49938512     1.00200
H3385       H  0.70184902  0.69978286  0.45002924     0.30000
O3386       O  0.71494923  0.71282392  0.46435613    -1.00900
H3387       H  0.79751884  0.69991922  0.04141042     0.30000
O3388       O  0.78414269  0.71301927  0.02742785    -1.03400
O3389       O  0.74543928  0.80108888  0.40999010    -0.80600
O3390       O  0.75197451  0.80060972  0.08219768    -0.80200
O3391       O  0.65335706  0.75201280  0.44592863    -0.78600
O3392       O  0.84456912  0.74408910  0.44506280    -0.81900
O3393       O  0.84636434  0.74918582  0.04520094    -0.79800
O3394       O  0.65420960  0.74163400  0.04598939    -0.78500
O3395       O  0.69394083  0.84009947  0.50110331    -0.80000
O3396       O  0.80411103  0.84028756  0.49459039    -0.81900
O3397       O  0.65507291  0.80136161  0.50083017    -0.78600
O3398       O  0.84291221  0.80161301  0.49368946    -0.81300
O3399       O  0.69443241  0.74960419  0.40938816    -0.77000
O3400       O  0.69589057  0.74409863  0.08168883    -0.77100
O3401       O  0.80455033  0.74939703  0.08078803    -0.76700
O3402       O  0.80276925  0.74517418  0.40943334    -0.80200
O3403       O  0.74350938  0.84255283  0.44604991    -0.79600
O3404       O  0.75400570  0.84211987  0.04622547    -0.78000
Eu3405     Eu  0.74846385  0.74678812  0.43386370     2.39800
Eu3406     Eu  0.75006463  0.74683091  0.05750089     2.39600
Eu3407     Eu  0.68152270  0.74643960  0.49658302     2.38400
Eu3408     Eu  0.81593977  0.74690834  0.49576886     2.39900
Eu3409     Eu  0.74879759  0.81401638  0.49661191     2.39800
O3410       O  0.78324282  0.77990376  0.02639040    -0.92400
O3411       O  0.71548431  0.77982700  0.46540824    -0.91300
C3412       C  0.74277739  0.83144986  0.41726316     1.02800
C3413       C  0.75450995  0.83096623  0.07500096     1.01500
C3414       C  0.66421806  0.75278133  0.41707223     1.00900
C3415       C  0.83331318  0.74338902  0.41637003     1.02900
C3416       C  0.83505935  0.75062524  0.07381342     1.01800
C3417       C  0.66550541  0.74117516  0.07467550     1.00700
C3418       C  0.66377294  0.83153698  0.50217256     1.00700
C3419       C  0.83436734  0.83181560  0.49358751     1.03300
H3420       H  0.70335944  0.79329510  0.04147196     0.30700
O3421       O  0.71640927  0.78029729  0.02705696    -1.04500
H3422       H  0.79517046  0.79392850  0.44971459     0.32800
O3423       O  0.78223781  0.78071424  0.46401025    -1.07100
N3424       N  0.85971173  0.85724332  0.49084066    -0.03000
C3425       C  0.85607949  0.89034453  0.48748521    -0.00400
C3426       C  0.88482999  0.90545053  0.47981705    -0.23300
C3427       C  0.90771723  0.88287953  0.47991396    -0.23500
C3428       C  0.89291294  0.85398724  0.48752518    -0.00500
H3429       H  0.88916306  0.93090787  0.47546682     0.13300
H3430       H  0.93313887  0.88749743  0.47560522     0.13300
N3431       N  0.63877333  0.85683546  0.50684042    -0.03000
C3432       C  0.64286828  0.88974462  0.51154766    -0.00400
C3433       C  0.61481891  0.90422258  0.52235186    -0.23300
C3434       C  0.59181779  0.88144196  0.52262652    -0.23500
C3435       C  0.60592156  0.85313542  0.51199552    -0.00500
H3436       H  0.61090829  0.92950596  0.52797025     0.13300
H3437       H  0.56663005  0.88567862  0.52842959     0.13300
N3438       N  0.85964153  0.63679062  0.50308863    -0.03000
C3439       C  0.89260606  0.64068118  0.50732646    -0.00400
C3440       C  0.90744702  0.61229385  0.51658777    -0.23300
C3441       C  0.88486444  0.58932981  0.51656439    -0.23500
C3442       C  0.85626950  0.60375745  0.50728971    -0.00500
H3443       H  0.93282021  0.60812807  0.52132060     0.13300
H3444       H  0.88938819  0.56402655  0.52147580     0.13300
N3445       N  0.99128487  0.63714763  0.63644887    -0.03000
C3446       C  0.51346970  0.60309094  0.64037408    -0.00400
C3447       C  0.52621283  0.58944842  0.61272857    -0.23300
C3448       C  0.52624095  0.61243204  0.58993802    -0.23500
C3449       C  0.51360122  0.64000590  0.60381377    -0.00500
H3450       H  0.53350119  0.56457620  0.60895160     0.13300
H3451       H  0.53352564  0.60884499  0.56503634     0.13300
O3452       O  0.50156894  0.69098880  0.65308844    -0.79700
O3453       O  0.50396785  0.69085900  0.83969652    -0.81200
O3454       O  0.55186394  0.65078657  0.74442947    -0.78200
O3455       O  0.94926703  0.65135794  0.75029779    -0.76600
O3456       O  0.91340125  0.69290886  0.74794466    -0.78400
O3457       O  0.58768684  0.69254060  0.74420726    -0.79400
O3458       O  0.50385219  0.65184178  0.80122902    -0.80700
O3459       O  0.50259183  0.65229696  0.69195520    -0.81000
Eu3460     Eu  0.50124525  0.67900252  0.74688877     2.39200
O3461       O  0.96833782  0.71440378  0.77942583    -0.88500
O3462       O  0.53127516  0.71390572  0.71353875    -0.92100
C3463       C  0.50298373  0.66086177  0.66172985     1.02600
C3464       C  0.50468173  0.66053151  0.83133034     1.02400
C3465       C  0.58049800  0.66198800  0.74286281     1.02400
C3466       C  0.92048569  0.66246685  0.75028279     1.00200
H3467       H  0.54803639  0.70022478  0.79313176     0.30000
O3468       O  0.53358110  0.71301501  0.77995980    -1.00900
H3469       H  0.95299995  0.70072554  0.69959932     0.30000
O3470       O  0.96737019  0.71379567  0.71261989    -1.03400
O3471       O  0.50008355  0.80108861  0.83995612    -0.80600
O3472       O  0.49571611  0.80116194  0.65250862    -0.80200
O3473       O  0.58630384  0.75175555  0.80035513    -0.78600
O3474       O  0.91349465  0.74432857  0.80057721    -0.81900
O3475       O  0.91214721  0.75059675  0.69153984    -0.79800
O3476       O  0.58640746  0.74038968  0.69126301    -0.78500
O3477       O  0.55045793  0.84238167  0.74060588    -0.80000
O3478       O  0.94852553  0.84326268  0.74349969    -0.81900
O3479       O  0.58729201  0.80146114  0.73983015    -0.78600
O3480       O  0.91259673  0.80165673  0.74366655    -0.81300
O3481       O  0.55090103  0.75078782  0.84232811    -0.77000
O3482       O  0.54979678  0.74213201  0.65022760    -0.77100
O3483       O  0.94837019  0.75190743  0.65014461    -0.76700
O3484       O  0.94974367  0.74198943  0.84188379    -0.80200
O3485       O  0.50081414  0.83984081  0.80123244    -0.79600
O3486       O  0.49552833  0.84005079  0.69119841    -0.78000
Eu3487     Eu  0.50096198  0.74624806  0.81330824     2.39800
Eu3488     Eu  0.49938478  0.74607568  0.67901636     2.39600
Eu3489     Eu  0.56329987  0.74709298  0.74569784     2.38400
Eu3490     Eu  0.93684062  0.74745848  0.74611964     2.39900
Eu3491     Eu  0.49994400  0.81355704  0.74602360     2.39800
O3492       O  0.96787764  0.78061156  0.71308914    -0.92400
O3493       O  0.53213110  0.78013200  0.77926123    -0.91300
C3494       C  0.50031257  0.83129250  0.83145089     1.02800
C3495       C  0.49440241  0.83140441  0.66102784     1.01500
C3496       C  0.57939375  0.75311939  0.83089872     1.00900
C3497       C  0.92096488  0.74126808  0.83084524     1.02900
C3498       C  0.91956317  0.75314974  0.66109517     1.01800
C3499       C  0.57847701  0.73853672  0.66099408     1.00700
C3500       C  0.57932586  0.83175666  0.73785088     1.00700
C3501       C  0.91981241  0.83210427  0.74189760     1.03300
H3502       H  0.54470791  0.79272811  0.69776723     0.30700
O3503       O  0.53144562  0.77983339  0.71202879    -1.04500
H3504       H  0.95339817  0.79407606  0.79324821     0.32800
O3505       O  0.96756705  0.78100995  0.78002562    -1.07100
N3506       N  0.49905141  0.85668616  0.85688396    -0.03000
C3507       C  0.49776578  0.85337425  0.89021567    -0.00400
C3508       C  0.49351781  0.88265034  0.90562965    -0.23300
C3509       C  0.49279595  0.90527454  0.88289160    -0.23500
C3510       C  0.49678958  0.88992485  0.85349599    -0.00500
H3511       H  0.49123755  0.88743704  0.93128507     0.13300
H3512       H  0.48997484  0.93086389  0.88771756     0.13300
N3513       N  0.01143117  0.63683595  0.85603060    -0.03000
C3514       C  0.51160208  0.60207586  0.85339878    -0.00400
C3515       C  0.51969842  0.58744758  0.88224361    -0.23300
C3516       C  0.51979491  0.61042997  0.90478459    -0.23500
C3517       C  0.51157257  0.63904326  0.88970577    -0.00500
H3518       H  0.52384655  0.56204143  0.88693648     0.13300
H3519       H  0.52405143  0.60617718  0.93025619     0.13300
N3520       N  0.48981906  0.85659359  0.63577276    -0.03000
C3521       C  0.48403191  0.85261378  0.60304778    -0.00400
C3522       C  0.47326573  0.88080149  0.58878931    -0.23300
C3523       C  0.47433383  0.90387324  0.61140058    -0.23500
C3524       C  0.48550418  0.88961015  0.63941696    -0.00500
H3525       H  0.46690860  0.88476746  0.56369092     0.13300
H3526       H  0.46873638  0.92912962  0.60727767     0.13300
O3527       O  0.50450232  0.55032366  0.65942819    -0.79700
O3528       O  0.50375233  0.54973886  0.83306654    -0.81200
O3529       O  0.94456209  0.59085256  0.74913338    -0.78200
O3530       O  0.55514602  0.59015366  0.74478089    -0.76600
O3531       O  0.59369418  0.55118541  0.74414213    -0.78400
O3532       O  0.90573177  0.55206443  0.74849091    -0.79400
O3533       O  0.50477333  0.59138893  0.79717861    -0.80700
O3534       O  0.50250901  0.59154637  0.69587856    -0.81000
Eu3535     Eu  0.50041316  0.56294236  0.74676257     2.39200
O3536       O  0.53324129  0.52854543  0.77830526    -0.88500
O3537       O  0.96656346  0.53005360  0.71589071    -0.92100
C3538       C  0.50564344  0.58074807  0.66712275     1.02600
C3539       C  0.50591497  0.58020700  0.82585088     1.02400
C3540       C  0.91433648  0.58226466  0.74941636     1.02400
C3541       C  0.58531066  0.58148409  0.74363633     1.00200
H3542       H  0.95242756  0.54394972  0.79342253     0.30000
O3543       O  0.96546732  0.53097083  0.77901739    -1.00900
H3544       H  0.54719863  0.54170544  0.70115777     0.30000
O3545       O  0.53352030  0.52886469  0.71501208    -1.03400
O3546       O  0.49965379  0.94178849  0.83177064    -0.80600
O3547       O  0.49548631  0.94197929  0.65883671    -0.80200
O3548       O  0.90287667  0.99429607  0.79721209    -0.78600
O3549       O  0.59545934  0.99930222  0.79639813    -0.81900
O3550       O  0.59553898  0.99963568  0.69535181    -0.79800
O3551       O  0.90318363  0.00385865  0.69655065    -0.78500
O3552       O  0.94370654  0.90350565  0.74489711    -0.80000
O3553       O  0.55473120  0.90295431  0.74267769    -0.81900
O3554       O  0.90509641  0.94242977  0.74382559    -0.78600
O3555       O  0.59343017  0.94182954  0.74228858    -0.81300
O3556       O  0.94488222  0.99594535  0.83250264    -0.77000
O3557       O  0.94448582  0.00225961  0.66026319    -0.77100
O3558       O  0.55377955  0.99817770  0.65966100    -0.76700
O3559       O  0.55382545  0.99888851  0.83225679    -0.80200
O3560       O  0.49897057  0.89988388  0.79637641    -0.79600
O3561       O  0.49509037  0.90070664  0.69521923    -0.78000
Eu3562     Eu  0.49953428  0.99603417  0.80843792     2.39800
Eu3563     Eu  0.49913254  0.99602874  0.68368268     2.39600
Eu3564     Eu  0.93160798  0.99757146  0.74686036     2.38400
Eu3565     Eu  0.56662779  0.99638609  0.74564433     2.39900
Eu3566     Eu  0.49967917  0.92911955  0.74592728     2.39800
O3567       O  0.53321336  0.96247839  0.71373441    -0.92400
O3568       O  0.96541626  0.96374948  0.77788256    -0.91300
C3569       C  0.49884372  0.91125919  0.82504523     1.02800
C3570       C  0.49321097  0.91161544  0.66642681     1.01500
C3571       C  0.91432573  0.99410716  0.82580489     1.00900
C3572       C  0.58427587  0.00071048  0.82514603     0.99300
C3573       C  0.58432166  0.00018050  0.66667527     1.01800
C3574       C  0.91420580  0.00523488  0.66779044     1.00700
C3575       C  0.91359697  0.91215855  0.74356109     1.00700
C3576       C  0.58488320  0.91165092  0.74135563     1.03300
H3577       H  0.95125794  0.95140623  0.70049979     0.30700
O3578       O  0.96486928  0.96407859  0.71458819    -1.04500
H3579       H  0.54707703  0.94939893  0.79157958     0.32800
O3580       O  0.53353820  0.96255883  0.77780192    -1.07100
N3581       N  0.61079207  0.60664423  0.73991840    -0.03000
C3582       C  0.60784544  0.63992026  0.73694182    -0.00400
C3583       C  0.63647313  0.65418816  0.72753126    -0.23300
C3584       C  0.65848830  0.63077653  0.72527851    -0.23500
C3585       C  0.64352446  0.60241462  0.73444206    -0.00500
H3586       H  0.64142968  0.67958559  0.72382206     0.13300
H3587       H  0.68375945  0.63462467  0.71962510     0.13300
N3588       N  0.88898447  0.60754494  0.75222247    -0.03000
C3589       C  0.89242454  0.64081047  0.75473053    -0.00400
C3590       C  0.86336800  0.65582039  0.76132321    -0.23300
C3591       C  0.84074010  0.63293456  0.76203021    -0.23500
C3592       C  0.85584054  0.60385486  0.75573143    -0.00500
H3593       H  0.85867159  0.68136352  0.76467103     0.13300
H3594       H  0.81525313  0.63748198  0.76590044     0.13300
N3595       N  0.88844213  0.88683322  0.73971908    -0.03000
C3596       C  0.85555916  0.89049016  0.73488416    -0.00400
C3597       C  0.84111886  0.86200993  0.72525647    -0.23300
C3598       C  0.86389758  0.83919790  0.72577082    -0.23500
C3599       C  0.89223577  0.85382656  0.73555982    -0.00500
H3600       H  0.81586979  0.85768650  0.71998670     0.13300
H3601       H  0.85964527  0.81386082  0.72086849     0.13300
N3602       N  0.61007072  0.88658146  0.73653453    -0.03000
C3603       C  0.60597429  0.85409637  0.72978681    -0.00400
C3604       C  0.63379828  0.84039457  0.71750379    -0.23300
C3605       C  0.65684114  0.86312114  0.71861486    -0.23500
C3606       C  0.64288553  0.89058718  0.73143029    -0.00500
H3607       H  0.63757951  0.81553533  0.71016618     0.13300
H3608       H  0.68192336  0.85938089  0.71206053     0.13300
N3609       N  0.85979153  0.00666814  0.63647449    -0.03000
C3610       C  0.89246932  0.01239602  0.64054078    -0.00400
C3611       C  0.90703540  0.02235678  0.61226010    -0.23300
C3612       C  0.88467096  0.02092931  0.58904825    -0.23500
C3613       C  0.85636122  0.01059910  0.60334544    -0.00500
H3614       H  0.93222129  0.02814161  0.60831073     0.13300
H3615       H  0.88913750  0.02587279  0.56371991     0.13300
O3616       O  0.69538291  0.58226988  0.74432407    -0.79700
O3617       O  0.69536476  0.90968923  0.74165638    -0.81200
O3618       O  0.65597908  0.99884657  0.69134559    -0.78200
O3619       O  0.65573643  0.99835474  0.80148276    -0.76600
O3620       O  0.69434589  0.99917726  0.84041205    -0.78400
O3621       O  0.69496568  0.99965304  0.65283400    -0.79400
O3622       O  0.65405102  0.94603496  0.74302939    -0.80700
O3623       O  0.65396145  0.54616876  0.74234332    -0.81000
Eu3624     Eu  0.68236192  0.99698358  0.74642979     2.39200
O3625       O  0.71570677  0.96518713  0.78011732    -0.88500
O3626       O  0.71621423  0.52751701  0.71462890    -0.92100
C3627       C  0.66507752  0.57491056  0.74129696     1.02600
C3628       C  0.66496790  0.91731367  0.74001226     1.02400
C3629       C  0.66467248  0.99974634  0.66118300     1.02400
C3630       C  0.66420708  0.99946942  0.83172708     1.00200
H3631       H  0.70354015  0.95215333  0.69863809     0.30000
O3632       O  0.71633657  0.96574563  0.71267218    -1.00900
H3633       H  0.70309059  0.54158634  0.79457373     0.30000
O3634       O  0.71614396  0.52735545  0.78146014    -1.03400
O3635       O  0.80344091  0.91037224  0.74401339    -0.80600
O3636       O  0.80378873  0.58247190  0.74971152    -0.80200
O3637       O  0.75375262  0.94789023  0.65036267    -0.78600
O3638       O  0.74373005  0.94620662  0.84224579    -0.81900
O3639       O  0.75463586  0.54595569  0.84333177    -0.79800
O3640       O  0.74539099  0.54695955  0.65134910    -0.78500
O3641       O  0.84300106  0.00163301  0.69201851    -0.80000
O3642       O  0.84296022  0.99516385  0.80205206    -0.81900
O3643       O  0.80451298  0.00038592  0.65298654    -0.78600
O3644       O  0.80410190  0.99511423  0.84068203    -0.81300
O3645       O  0.75454543  0.91197811  0.69188329    -0.77000
O3646       O  0.74722108  0.58240073  0.69324963    -0.77100
O3647       O  0.75220611  0.58230032  0.80208644    -0.76700
O3648       O  0.74547843  0.91010214  0.80076423    -0.80200
O3649       O  0.84474666  0.94669455  0.74235916    -0.79600
O3650       O  0.84553585  0.54683572  0.75186778    -0.78000
Eu3651     Eu  0.74934012  0.93462166  0.74663655     2.39800
Eu3652     Eu  0.74955276  0.55831233  0.74786872     2.39600
Eu3653     Eu  0.74987254  0.99822308  0.67975099     2.38400
Eu3654     Eu  0.74918367  0.99679708  0.81405129     2.39900
Eu3655     Eu  0.81667061  0.99756135  0.74729866     2.39800
O3656       O  0.78273461  0.52705216  0.78114137    -0.92400
O3657       O  0.78252851  0.96650651  0.71401545    -0.91300
C3658       C  0.83374899  0.91787828  0.74138014     1.02800
C3659       C  0.83428475  0.57558397  0.75185721     1.01500
C3660       C  0.75606332  0.91917095  0.66142648     1.00900
C3661       C  0.74255356  0.91747582  0.83110785     1.02900
C3662       C  0.75526348  0.57479752  0.83234639     1.01800
C3663       C  0.74500455  0.57562078  0.66267277     1.00700
C3664       C  0.83458401  0.00211031  0.66170019     1.00700
C3665       C  0.83433005  0.99457517  0.83217939     1.03300
H3666       H  0.79655289  0.54262739  0.70129420     0.30700
O3667       O  0.78348489  0.52825264  0.71423316    -1.04500
H3668       H  0.79607445  0.95063827  0.79367058     0.32800
O3669       O  0.78306038  0.96497997  0.78056929    -1.07100
N3670       N  0.63886235  0.00283526  0.85692508    -0.03000
C3671       C  0.64237279  0.00716179  0.89000128    -0.00400
C3672       C  0.61365919  0.01596906  0.90447195    -0.23300
C3673       C  0.59096996  0.01549379  0.88155077    -0.23500
C3674       C  0.60583966  0.00660673  0.85302359    -0.00500
H3675       H  0.60916307  0.02103677  0.92977328     0.13300
H3676       H  0.56556308  0.02005259  0.88578183     0.13300
N3677       N  0.85966507  0.99208252  0.85746126    -0.03000
C3678       C  0.89292489  0.98995069  0.85400027    -0.00400
C3679       C  0.90810182  0.98365570  0.88301702    -0.23300
C3680       C  0.88528026  0.98272680  0.90565930    -0.23500
C3681       C  0.85612495  0.98869490  0.89054608    -0.00500
H3682       H  0.93368403  0.98050343  0.88764532     0.13300
H3683       H  0.88991729  0.97889849  0.93114986     0.13300
N3684       N  0.63939603  0.00204744  0.63566298    -0.03000
C3685       C  0.64309870  0.00489349  0.60249034    -0.00400
C3686       C  0.61422189  0.01180263  0.58723655    -0.23300
C3687       C  0.59130684  0.01187231  0.60980448    -0.23500
C3688       C  0.60612750  0.00499315  0.63886851    -0.00500
H3689       H  0.60980197  0.01555669  0.56169224     0.13300
H3690       H  0.56583594  0.01568922  0.60505314     0.13300
O3691       O  0.83653776  0.00184127  0.55079572    -0.79700
O3692       O  0.66436339  0.99895370  0.55055076    -0.81200
O3693       O  0.74733080  0.55192601  0.59083247    -0.78200
O3694       O  0.75285820  0.94278648  0.58998409    -0.76600
O3695       O  0.75210066  0.90379868  0.55138494    -0.78400
O3696       O  0.74653877  0.59063526  0.55200897    -0.79400
O3697       O  0.69980701  0.99862656  0.59249356    -0.80700
O3698       O  0.80046971  0.00164185  0.59230022    -0.81000
Eu3699     Eu  0.75021529  0.99748318  0.56337725     2.39200
O3700       O  0.71850946  0.96385146  0.52962703    -0.88500
O3701       O  0.78107334  0.53029357  0.52966329    -0.92100
C3702       C  0.82916344  0.00371522  0.58127293     1.02600
C3703       C  0.67119443  0.00005178  0.58109873     1.02400
C3704       C  0.74614581  0.58208022  0.58228195     1.02400
C3705       C  0.75333134  0.91257515  0.58148353     1.00200
H3706       H  0.70328030  0.54409914  0.54360950     0.30000
O3707       O  0.71756970  0.53104402  0.53054759    -1.00900
H3708       H  0.79599437  0.95063638  0.54282757     0.30000
O3709       O  0.78169861  0.96353671  0.52964178    -1.03400
O3710       O  0.66289358  0.00016857  0.94254059    -0.80600
O3711       O  0.83480016  0.99352686  0.94241753    -0.80200
O3712       O  0.70033433  0.59251684  0.99391691    -0.78600
O3713       O  0.69935734  0.90014756  0.00049953    -0.81900
O3714       O  0.80078036  0.90039075  0.99233546    -0.79800
O3715       O  0.80176968  0.59276731  0.99422953    -0.78500
O3716       O  0.75282484  0.55103756  0.90371674    -0.80000
O3717       O  0.74620340  0.94111135  0.90264390    -0.81900
O3718       O  0.75261708  0.59006898  0.94232926    -0.78600
O3719       O  0.74653144  0.90205845  0.94108245    -0.81300
O3720       O  0.66446383  0.55090210  0.99546899    -0.77000
O3721       O  0.83781074  0.55129925  0.99167693    -0.77100
O3722       O  0.83638888  0.94212979  0.99506104    -0.76700
O3723       O  0.66371729  0.94197085  0.00087590    -0.80200
O3724       O  0.69855240  0.99901489  0.90076830    -0.79600
O3725       O  0.79928533  0.99381257  0.90060159    -0.78000
Eu3726     Eu  0.68734348  0.99639509  0.99688857     2.39800
Eu3727     Eu  0.81198493  0.99608887  0.99679673     2.39600
Eu3728     Eu  0.75108844  0.56415212  0.99766024     2.38400
Eu3729     Eu  0.74979060  0.92855353  0.99616838     2.39900
Eu3730     Eu  0.74888129  0.99583281  0.92964807     2.39800
O3731       O  0.78101269  0.96281273  0.96322887    -0.92400
O3732       O  0.71963172  0.52988670  0.96450763    -0.91300
C3733       C  0.66994837  0.00135258  0.91197242     1.02800
C3734       C  0.82792906  0.99251918  0.91193861     1.01500
C3735       C  0.67161946  0.58128160  0.99299785     1.00900
C3736       C  0.67078538  0.91147863  0.00251593     1.02900
C3737       C  0.82949915  0.91167763  0.99266910     1.01800
C3738       C  0.83032641  0.58174167  0.99041349     1.00700
C3739       C  0.75348516  0.58129548  0.91216409     1.00700
C3740       C  0.74538446  0.91084268  0.91093626     1.03300
H3741       H  0.79567296  0.54232822  0.94991353     0.30700
O3742       O  0.78188919  0.52968366  0.96383591    -1.04500
H3743       H  0.70245989  0.94919343  0.95009817     0.32800
O3744       O  0.71698562  0.96211513  0.96304978    -1.07100
N3745       N  0.74318365  0.60731000  0.60773396    -0.03000
C3746       C  0.74041615  0.64052001  0.60422077    -0.00400
C3747       C  0.73431183  0.65562478  0.63334729    -0.23300
C3748       C  0.73431440  0.63286227  0.65612982    -0.23500
C3749       C  0.74047460  0.60376114  0.64102711    -0.00500
H3750       H  0.73123837  0.68119679  0.63801875     0.13300
H3751       H  0.73119441  0.63753452  0.68170092     0.13300
N3752       N  0.75695832  0.88744340  0.60673687    -0.03000
C3753       C  0.75986097  0.85424200  0.60316949    -0.00400
C3754       C  0.76855032  0.83955074  0.63177793    -0.23300
C3755       C  0.77002091  0.86258766  0.65432801    -0.23500
C3756       C  0.76186135  0.89138428  0.63962519    -0.00500
H3757       H  0.77224125  0.81407094  0.63634309     0.13300
H3758       H  0.77478079  0.85818654  0.67965730     0.13300
N3759       N  0.74106229  0.88586012  0.88542156    -0.03000
C3760       C  0.73690941  0.85280763  0.88862834    -0.00400
C3761       C  0.72596191  0.83878272  0.86041004    -0.23300
C3762       C  0.72467416  0.86210984  0.83811887    -0.23500
C3763       C  0.73528868  0.89014871  0.85275604    -0.00500
H3764       H  0.72071416  0.81355326  0.85592609     0.13300
H3765       H  0.71835081  0.85844239  0.81296153     0.13300
N3766       N  0.75728412  0.60636674  0.88674385    -0.03000
C3767       C  0.76218610  0.60226274  0.85393521    -0.00400
C3768       C  0.77242680  0.63040071  0.83922149    -0.23300
C3769       C  0.77216780  0.65349315  0.86173332    -0.23500
C3770       C  0.76178048  0.63935270  0.89007917    -0.00500
H3771       H  0.77810012  0.63427310  0.81396383     0.13300
H3772       H  0.77759745  0.67869739  0.85730043     0.13300
O3773       O  0.50490321  0.65958029  0.55113925    -0.79700
O3774       O  0.49304791  0.83294050  0.55062700    -0.81200
O3775       O  0.55406158  0.74389190  0.58993568    -0.78200
O3776       O  0.94421462  0.75095698  0.58947345    -0.76600
O3777       O  0.90561859  0.75143431  0.55048664    -0.78400
O3778       O  0.59275060  0.74195694  0.55111345    -0.79400
O3779       O  0.49462473  0.79687420  0.59211478    -0.80700
O3780       O  0.50238704  0.69560296  0.59263110    -0.81000
Eu3781     Eu  0.49904699  0.74610364  0.56370530     2.39200
O3782       O  0.96629363  0.77864043  0.52869738    -0.88500
O3783       O  0.53248667  0.71475945  0.52971073    -0.92100
C3784       C  0.50591369  0.66698791  0.58163743     1.02600
C3785       C  0.49147006  0.82550498  0.58104916     1.02400
C3786       C  0.58416430  0.74170214  0.58127383     1.02400
C3787       C  0.91409892  0.75225172  0.58072776     1.00200
H3788       H  0.54528047  0.79154856  0.54450304     0.30000
O3789       O  0.53249665  0.77801076  0.53039353    -1.00900
H3790       H  0.95190359  0.70305419  0.54308966     0.30000
O3791       O  0.96550108  0.71633780  0.52952085    -1.03400
O3792       O  0.50191476  0.83148124  0.94205476    -0.80600
O3793       O  0.50291071  0.65964644  0.94142432    -0.80200
O3794       O  0.59634524  0.79689506  0.99916713    -0.78600
O3795       O  0.90448466  0.79637665  0.99373646    -0.81900
O3796       O  0.90447087  0.69595410  0.99149496    -0.79800
O3797       O  0.59642804  0.69547354  0.99189543    -0.78500
O3798       O  0.55563840  0.74932072  0.90232182    -0.80000
O3799       O  0.94590381  0.74183049  0.90225990    -0.81900
O3800       O  0.59445984  0.74935119  0.94098392    -0.78600
O3801       O  0.90691614  0.74399847  0.94072925    -0.81300
O3802       O  0.55458042  0.83257559  0.99961169    -0.77000
O3803       O  0.55488303  0.65943153  0.99322085    -0.77100
O3804       O  0.94611146  0.66032222  0.98734690    -0.76700
O3805       O  0.94642028  0.83175961  0.99543575    -0.80200
O3806       O  0.49915113  0.79648605  0.89988203    -0.79600
O3807       O  0.50486588  0.69557206  0.89990578    -0.78000
Eu3808     Eu  0.50095538  0.80779146  0.99638657     2.39800
Eu3809     Eu  0.50052626  0.68353653  0.99554114     2.39600
Eu3810     Eu  0.56807471  0.74605905  0.99603542     2.38400
Eu3811     Eu  0.93365086  0.74589657  0.99525166     2.39900
Eu3812     Eu  0.50077845  0.74620516  0.92858853     2.39800
O3813       O  0.96781015  0.71451256  0.96168480    -0.92400
O3814       O  0.53448120  0.77782025  0.96242841    -0.91300
C3815       C  0.50020605  0.82497976  0.91146615     1.02800
C3816       C  0.50547896  0.66682570  0.91107508     1.01500
C3817       C  0.58503692  0.82551851  0.00111037     1.00900
C3818       C  0.91584655  0.82504612  0.99382672     1.02900
C3819       C  0.91556537  0.66761284  0.98682773     1.01800
C3820       C  0.58530347  0.66672740  0.99102822     1.00700
C3821       C  0.58581753  0.75026865  0.91079331     1.00700
C3822       C  0.91555939  0.74194464  0.91068165     1.03300
H3823       H  0.54749149  0.70171649  0.94903334     0.30700
O3824       O  0.53397810  0.71503671  0.96259546    -1.04500
H3825       H  0.95421925  0.79147695  0.94888157     0.32800
O3826       O  0.96761850  0.77781668  0.96224814    -1.07100
N3827       N  0.88880283  0.75635265  0.60586427    -0.03000
C3828       C  0.85601319  0.76165356  0.60176720    -0.00400
C3829       C  0.84148418  0.77163587  0.63005490    -0.23300
C3830       C  0.86395029  0.77042745  0.65323611    -0.23500
C3831       C  0.89228848  0.76017433  0.63899325    -0.00500
H3832       H  0.81625658  0.77722010  0.63406709     0.13300
H3833       H  0.85946649  0.77516228  0.67855124     0.13300
N3834       N  0.60921731  0.73663957  0.60639380    -0.03000
C3835       C  0.64203317  0.73149857  0.60259167    -0.00400
C3836       C  0.65585742  0.71873945  0.63007781    -0.23300
C3837       C  0.63260647  0.71733656  0.65254411    -0.23500
C3838       C  0.60493075  0.72980468  0.63877444    -0.00500
H3839       H  0.68094891  0.71246556  0.63399035     0.13300
H3840       H  0.63627457  0.71018972  0.67738496     0.13300
N3841       N  0.61094622  0.75386247  0.88535164    -0.03000
C3842       C  0.60714887  0.75866348  0.85244135    -0.00400
C3843       C  0.63592584  0.76645829  0.83748280    -0.23300
C3844       C  0.65895216  0.76468812  0.85987991    -0.23500
C3845       C  0.64412020  0.75643714  0.88859780    -0.00500
H3846       H  0.64023960  0.77138659  0.81212272     0.13300
H3847       H  0.68446213  0.76813830  0.85520182     0.13300
N3848       N  0.89010163  0.73831164  0.88551335    -0.03000
C3849       C  0.89353590  0.73465266  0.85245879    -0.00400
C3850       C  0.86482974  0.72623347  0.83767486    -0.23300
C3851       C  0.84210241  0.72624396  0.86047480    -0.23500
C3852       C  0.85698424  0.73457332  0.88914186    -0.00500
H3853       H  0.86032765  0.72201023  0.81222667     0.13300
H3854       H  0.81664578  0.72214510  0.85601637     0.13300
N3855       N  0.64004917  0.63574337  0.98992997    -0.03000
C3856       C  0.64389261  0.60269692  0.98654406    -0.00400
C3857       C  0.61550771  0.58774564  0.97737082    -0.23300
C3858       C  0.59265144  0.61045833  0.97650177    -0.23500
C3859       C  0.60710670  0.63919572  0.98527712    -0.00500
H3860       H  0.61133168  0.56229946  0.97292462     0.13300
H3861       H  0.56738752  0.60596413  0.97136393     0.13300
O3862       O  0.74770449  0.69246630  0.58301269    -0.79700
O3863       O  0.75293173  0.69177983  0.90947792    -0.81200
O3864       O  0.69534637  0.65266269  0.99440859    -0.78200
O3865       O  0.80528123  0.65311976  0.99240089    -0.76600
O3866       O  0.84392832  0.69200756  0.99200132    -0.78400
O3867       O  0.65651791  0.69132834  0.99324477    -0.79400
O3868       O  0.75298002  0.65048427  0.94582235    -0.80700
O3869       O  0.74430911  0.65082243  0.54728961    -0.81000
Eu3870     Eu  0.75011665  0.67928645  0.99605285     2.39200
O3871       O  0.78272261  0.71366509  0.96462495    -0.88500
O3872       O  0.71578715  0.71358569  0.52800312    -0.92100
C3873       C  0.74485164  0.66203167  0.57604411     1.02600
C3874       C  0.75484039  0.66141650  0.91709159     1.02400
C3875       C  0.66516919  0.66115123  0.99319610     1.02400
C3876       C  0.83545240  0.66180243  0.99093316     1.00200
H3877       H  0.70341215  0.69942934  0.94943999     0.30000
O3878       O  0.71646213  0.71265842  0.96363105    -1.00900
H3879       H  0.79578716  0.70041243  0.54249056     0.30000
O3880       O  0.78249204  0.71332943  0.52829451    -1.03400
O3881       O  0.74656593  0.80037309  0.90798687    -0.80600
O3882       O  0.75100574  0.80198789  0.58271582    -0.80200
O3883       O  0.65444580  0.75026500  0.94495988    -0.78600
O3884       O  0.84661153  0.74286215  0.94525987    -0.81900
O3885       O  0.84506043  0.75253046  0.54575136    -0.79800
O3886       O  0.65331986  0.74078637  0.54703992    -0.78500
O3887       O  0.69506927  0.84019268  0.99870183    -0.80000
O3888       O  0.80536487  0.84036133  0.99422152    -0.81900
O3889       O  0.65635062  0.80135432  0.99899710    -0.78600
O3890       O  0.84405121  0.80153857  0.99370793    -0.81300
O3891       O  0.69597164  0.74811128  0.90903562    -0.77000
O3892       O  0.69434614  0.74319006  0.58373874    -0.77100
O3893       O  0.80379426  0.75151894  0.58210703    -0.76700
O3894       O  0.80479815  0.74258431  0.90969343    -0.80200
O3895       O  0.74609906  0.84174643  0.94431204    -0.79600
O3896       O  0.75333300  0.84340189  0.54665725    -0.78000
Eu3897     Eu  0.75006925  0.74639985  0.93293093     2.39800
Eu3898     Eu  0.74886550  0.74697794  0.55923852     2.39600
Eu3899     Eu  0.68277047  0.74637022  0.99551486     2.38400
Eu3900     Eu  0.81731822  0.74681180  0.99503512     2.39900
Eu3901     Eu  0.75015111  0.81395719  0.99523964     2.39800
O3902       O  0.78195241  0.77977716  0.52759135    -0.92400
O3903       O  0.71689190  0.77959199  0.96415094    -0.91300
C3904       C  0.74429115  0.83073756  0.91556850     1.02800
C3905       C  0.75373733  0.83242188  0.57546593     1.01500
C3906       C  0.66562695  0.75065157  0.91625221     1.00900
C3907       C  0.83531188  0.74080083  0.91671987     1.02900
C3908       C  0.83412958  0.75425224  0.57453319     1.01800
C3909       C  0.66410906  0.73980713  0.57590007     1.00700
C3910       C  0.66488658  0.83157412  0.99987897     1.00700
C3911       C  0.83558800  0.83173756  0.99367860     1.03300
H3912       H  0.70203222  0.79303416  0.54307618     0.30700
O3913       O  0.71512539  0.78017393  0.52858080    -1.04500
H3914       H  0.79689117  0.79367652  0.94848616     0.32800
O3915       O  0.78387712  0.78060122  0.96284296    -1.07100
N3916       N  0.86110912  0.85697203  0.99189296    -0.03000
C3917       C  0.85773694  0.89017968  0.98903869    -0.00400
C3918       C  0.88702040  0.90527493  0.98371893    -0.23300
C3919       C  0.90974977  0.88251909  0.98451254    -0.23500
C3920       C  0.89442309  0.85340340  0.99012789    -0.00500
H3921       H  0.89176787  0.93080485  0.98030071     0.13300
H3922       H  0.93537475  0.88714096  0.98165182     0.13300
N3923       N  0.63960890  0.85680530  0.00387788    -0.03000
C3924       C  0.64319132  0.88977794  0.00839798    -0.00400
C3925       C  0.61447648  0.90442947  0.01693406    -0.23300
C3926       C  0.59168586  0.88167784  0.01636163    -0.23500
C3927       C  0.60654627  0.85315483  0.00743291    -0.00500
H3928       H  0.60998296  0.92977819  0.02149994     0.13300
H3929       H  0.56623710  0.88603669  0.02079062     0.13300
N3930       N  0.86075059  0.63670869  0.98602198    -0.03000
C3931       C  0.89332004  0.64074922  0.97930858    -0.00400
C3932       C  0.90730918  0.61263715  0.96805381    -0.23300
C3933       C  0.88474321  0.58955022  0.96967550    -0.23500
C3934       C  0.85703478  0.60373729  0.98171833    -0.00500
H3935       H  0.93227928  0.60867326  0.96119986     0.13300
H3936       H  0.88878521  0.56429697  0.96401294     0.13300
loop_ 
_geom_bond_atom_site_label_1 
_geom_bond_atom_site_label_2 
_geom_bond_distance 
_geom_bond_site_symmetry_2 
_ccdc_geom_bond_type 
N1         C1973   1.388       .  A
N1         C1970   1.385       .  A
N1         C1987   1.487       .  S
C2         N1969   1.382       .  A
C2            C3   1.379       .  A
C2           C94   1.466       .  S
C3            C4   1.332       .  A
C3            H6   1.082       .  S
C4            C5   1.380       .  A
C4            H7   1.083       .  S
C5         N1969   1.387       .  A
C5          C340   1.472       .  S
O8           C19   1.298       .  A
O8          Eu44   2.526   1_655  S
O9           C20   1.298       .  A
O9          Eu43   2.523       .  S
O10          C21   1.276       .  A
O10         Eu16   2.407       .  S
O11          C22   1.276       .  A
O11       Eu1984   2.406       .  S
O12          C22   1.298       .  A
O12         Eu46   2.471       .  S
O13          C21   1.299       .  A
O13         Eu45   2.471       .  S
O14          C20   1.298       .  A
O14         Eu16   2.523       .  S
O15          C19   1.302       .  A
O15         Eu16   2.542   1_655  S
Eu16       O1979   2.411   1_455  S
Eu16         O18   2.350       .  S
Eu16         O24   2.378       .  S
Eu16       O1994   2.369   1_455  S
Eu16       O1985   2.353   1_455  S
O17         Eu46   2.333       .  S
O17       Eu1984   2.365       .  S
O17       Eu2011   2.365       .  S
O18         Eu44   2.353       .  S
O18         Eu45   2.332       .  S
C19        N1969   1.490       .  S
C20        N2037   1.486       .  S
C21         C138   1.475       .  S
C22         C145   1.475       .  S
H23          O24   0.967       .  S
O24         Eu45   2.346       .  S
O24         Eu43   2.379       .  S
H25          O26   0.967       .  S
O26         Eu46   2.338       .  S
O26       Eu1984   2.366       .  S
O26       Eu2012   2.375       .  S
O27          C50   1.299       .  A
O27         Eu43   2.526       .  S
O28          C51   1.299       .  A
O28         Eu44   2.525   1_655  S
O29          C52   1.296       .  A
O29         Eu45   2.458       .  S
O30          C53   1.297       .  A
O30         Eu46   2.463       .  S
O31          C54   1.299       .  A
O31         Eu46   2.475       .  S
O32          C55   1.295       .  A
O32         Eu45   2.450       .  S
O33          C56   1.277       .  A
O33         Eu47   2.416       .  S
O34          C57   1.276       .  A
O34       Eu2015   2.411       .  S
O35          C56   1.299       .  A
O35         Eu45   2.477       .  S
O36          C57   1.296       .  A
O36         Eu46   2.454       .  S
O37          C52   1.274       .  A
O37         Eu43   2.401       .  S
O38          C55   1.276       .  A
O38         Eu44   2.415       .  S
O39          C54   1.272       .  A
O39       Eu2012   2.388       .  S
O40          C53   1.275       .  A
O40       Eu2011   2.409       .  S
O41          C50   1.299       .  A
O41         Eu47   2.526       .  S
O42          C51   1.297       .  A
O42         Eu47   2.517   1_655  S
Eu43       O2008   2.414   1_455  S
Eu43         O49   2.361       .  S
Eu43       O1985   2.353   1_455  S
Eu43       O2029   2.371   1_455  S
Eu44       O2007   2.401   1_455  S
Eu44         O59   2.370       .  S
Eu44       O1994   2.372   1_455  S
Eu44       O2016   2.356   1_455  S
Eu45         O59   2.346       .  S
Eu45         O49   2.332       .  S
Eu46         O48   2.333       .  S
Eu46         O61   2.350       .  S
Eu47       O2002   2.409   1_455  S
Eu47         O59   2.373       .  S
Eu47         O49   2.356       .  S
Eu47       O2016   2.359   1_455  S
Eu47       O2029   2.373   1_455  S
O48       Eu2012   2.357       .  S
O48       Eu2015   2.363       .  S
C50          N62   1.487       .  S
C51          N76   1.483       .  S
C52         C398   1.471       .  S
C53         C405   1.474       .  S
C54         C387   1.472       .  S
C55         C394   1.476       .  S
C56         C159   1.481       .  S
C57         C155   1.475       .  S
H58          O59   0.966       .  S
H60          O61   0.965       .  S
O61       Eu2011   2.364       .  S
O61       Eu2015   2.367       .  S
N62          C66   1.383       .  A
N62          C63   1.384       .  A
C63          C64   1.380       .  A
C63         C371   1.474       .  S
C64          C65   1.338       .  A
C64          H67   1.084       .  S
C65          C66   1.380       .  A
C65          H68   1.083       .  S
C66         C125   1.474       .  S
N69        C2041   1.384       .  A
N69        C2038   1.385       .  A
N69        C1988   1.481       .  S
C70        N2037   1.387       .  A
C70          C71   1.380       .  A
C70          C95   1.477       .  S
C71          C72   1.328       .  A
C71          H74   1.083       .  S
C72          C73   1.381       .  A
C72          H75   1.083       .  S
C73        N2037   1.387       .  A
C73         C372   1.475   1_455  S
N76          C80   1.386       .  A
N76          C77   1.385       .  A
C77          C78   1.380       .  A
C77         C341   1.480       .  S
C78          C79   1.338       .  A
C78          H81   1.083       .  S
C79          C80   1.380       .  A
C79          H82   1.083       .  S
C80         C126   1.480       .  S
O83          C94   1.295       .  A
O83       Eu1103   2.450   1_645  S
O84          C95   1.295       .  A
O84       Eu1102   2.456   1_545  S
O85          C96   1.299       .  A
O85       Eu2059   2.524       .  S
O86          C97   1.300       .  A
O86         Eu91   2.529       .  S
O87          C97   1.298       .  A
O87       Eu1105   2.523   1_545  S
O88          C96   1.298       .  A
O88       Eu1104   2.521   1_545  S
O89          C95   1.275       .  A
O89         Eu91   2.410       .  S
O90          C94   1.274       .  A
O90         Eu91   2.396   1_655  S
Eu91       O2053   2.526   1_455  S
Eu91        O101   2.377       .  S
Eu91         O92   2.357       .  S
Eu91       O2061   2.358   1_455  S
Eu91       O2067   2.369   1_455  S
O92       Eu1105   2.360   1_545  S
O92       Eu1102   2.332   1_545  S
O93       Eu2059   2.354       .  S
O93       Eu3071   2.333   1_545  S
O93       Eu1104   2.358   1_545  S
C96         N144   1.483       .  S
C97         N137   1.486       .  S
H98          O99   0.967       .  S
O99       Eu2059   2.381       .  S
O99       Eu1104   2.375   1_545  S
O99       Eu3070   2.340   1_545  S
H100        O101   0.966       .  S
O101      Eu1103   2.338   1_545  S
O101      Eu1105   2.365   1_545  S
O102        C125   1.299       .  A
O102       Eu118   2.472       .  S
O103        C126   1.298       .  A
O103       Eu119   2.470   1_655  S
O104        C127   1.275       .  A
O104       Eu120   2.409       .  S
O105        C128   1.275       .  A
O105       Eu121   2.402       .  S
O106        C129   1.272       .  A
O106       Eu121   2.393       .  S
O107        C130   1.278       .  A
O107       Eu120   2.418       .  S
O108        C131   1.299       .  A
O108      Eu2090   2.528       .  S
O109        C132   1.296       .  A
O109       Eu122   2.510       .  S
O110        C131   1.300       .  A
O110       Eu120   2.530       .  S
O111        C132   1.301       .  A
O111       Eu121   2.533       .  S
O112        C127   1.298       .  A
O112      Eu2086   2.468       .  S
O113        C130   1.295       .  A
O113      Eu2087   2.450       .  S
O114        C129   1.296       .  A
O114       Eu119   2.460       .  S
O115        C128   1.295       .  A
O115       Eu118   2.455       .  S
O116        C125   1.276       .  A
O116       Eu122   2.411       .  S
O117        C126   1.277       .  A
O117       Eu122   2.419   1_655  S
Eu118      O1068   2.461       .  S
Eu118      O2080   2.481   1_455  S
Eu118       O136   2.345       .  S
Eu118      O1076   2.340       .  S
Eu118      O3051   2.343   1_455  S
Eu118      O2092   2.332   1_455  S
Eu119      O1067   2.464   1_455  S
Eu119      O2081   2.456   1_455  S
Eu119       O123   2.330       .  S
Eu119      O3045   2.335   1_455  S
Eu119      O1085   2.344       .  S
Eu119      O2102   2.335   1_455  S
Eu120      O1072   2.519       .  S
Eu120       O134   2.361       .  S
Eu120       O124   2.364       .  S
Eu120      O1077   2.359       .  S
Eu120      O1083   2.368       .  S
Eu121      O1071   2.532       .  S
Eu121       O123   2.367       .  S
Eu121       O136   2.365       .  S
Eu121      O1076   2.357       .  S
Eu121      O1085   2.368       .  S
Eu122      O2076   2.538   1_455  S
Eu122       O123   2.366       .  S
Eu122       O136   2.375       .  S
Eu122      O2102   2.359   1_455  S
Eu122      O2092   2.363   1_455  S
O124      Eu2086   2.336       .  S
O124      Eu2090   2.369       .  S
C127        C234   1.477       .  S
C128        C230   1.470       .  S
C129        C244   1.472       .  S
C130        C166   1.473       .  S
C131        N151   1.489       .  S
C132        N158   1.482       .  S
H133        O134   0.965       .  S
O134      Eu2087   2.337       .  S
O134      Eu2090   2.364       .  S
H135        O136   0.966       .  S
N137        C141   1.384       .  A
N137        C138   1.383       .  A
C138        C139   1.380       .  A
C139        C140   1.340       .  A
C139        H142   1.081       .  S
C140        C141   1.379       .  A
C140        H143   1.084       .  S
C141        C183   1.476       .  S
N144        C148   1.382       .  A
N144        C145   1.383       .  A
C145        C146   1.379       .  A
C146        C147   1.338       .  A
C146        H149   1.083       .  S
C147        C148   1.378       .  A
C147        H150   1.081       .  S
C148        C215   1.475       .  S
N151        C155   1.387       .  A
N151        C152   1.385       .  A
C152        C153   1.380       .  A
C152        C214   1.470       .  S
C153        C154   1.328       .  A
C153        H156   1.083       .  S
C154        C155   1.381       .  A
C154        H157   1.083       .  S
N158        C162   1.382       .  A
N158        C159   1.386       .  A
C159        C160   1.380       .  A
C160        C161   1.337       .  A
C160        H163   1.083       .  S
C161        C162   1.381       .  A
C161        H164   1.083       .  S
C162        C184   1.476       .  S
N165        C169   1.387       .  A
N165        C166   1.381       .  A
N165        C220   1.486       .  S
C166        C167   1.380       .  A
C167        C168   1.338       .  A
C167        H170   1.083       .  S
C168        C169   1.380       .  A
C168        H171   1.083       .  S
C169        C258   1.478       .  S
O172        C183   1.299       .  A
O172       Eu208   2.477       .  S
O173        C184   1.295       .  A
O173       Eu207   2.451       .  S
O174        C185   1.297       .  A
O174       Eu180   2.516       .  S
O175        C186   1.299       .  A
O175       Eu180   2.524       .  S
O176        C186   1.298       .  A
O176       Eu210   2.522       .  S
O177        C185   1.300       .  A
O177       Eu209   2.530       .  S
O178        C184   1.278       .  A
O178       Eu180   2.422       .  S
O179        C183   1.275       .  A
O179      Eu1164   2.402   1_545  S
Eu180      O1163   2.410       .  S
Eu180       O181   2.365       .  S
Eu180       O188   2.362       .  S
Eu180      O1174   2.368       .  S
Eu180      O1166   2.370       .  S
O181       Eu210   2.367       .  S
O181       Eu207   2.338       .  S
O182       Eu208   2.335       .  S
O182      Eu1164   2.365   1_545  S
O182      Eu1193   2.361   1_545  S
C185        N240   1.486       .  S
C186        N226   1.485       .  S
H187        O188   0.965       .  S
O188       Eu209   2.354       .  S
O188       Eu207   2.333       .  S
H189        O190   0.967       .  S
O190       Eu208   2.338       .  S
O190      Eu1164   2.370   1_545  S
O190      Eu1194   2.378   1_545  S
O191        C214   1.294       .  A
O191       Eu207   2.444       .  S
O192        C215   1.298       .  A
O192       Eu208   2.470       .  S
O193        C216   1.276       .  A
O193       Eu209   2.417       .  S
O194        C217   1.276       .  A
O194       Eu210   2.410       .  S
O195        C218   1.277       .  A
O195      Eu1194   2.417   1_545  S
O196        C219   1.277       .  A
O196      Eu1193   2.415   1_545  S
O197        C220   1.301       .  A
O197       Eu211   2.536       .  S
O198        C221   1.299       .  A
O198       Eu211   2.524       .  S
O199        C220   1.297       .  A
O199       Eu209   2.517       .  S
O200        C221   1.299       .  A
O200       Eu210   2.524       .  S
O201        C216   1.296       .  A
O201       Eu207   2.458       .  S
O202        C219   1.297       .  A
O202       Eu208   2.459       .  S
O203        C218   1.297       .  A
O203       Eu208   2.458       .  S
O204        C217   1.298       .  A
O204       Eu207   2.466       .  S
O205        C214   1.274       .  A
O205       Eu211   2.401       .  S
O206        C215   1.276       .  A
O206      Eu1195   2.407   1_545  S
Eu207       O225   2.335       .  S
Eu207       O213   2.338       .  S
Eu208       O212   2.339       .  S
Eu208       O223   2.338       .  S
Eu209      O1180   2.407       .  S
Eu209       O213   2.362       .  S
Eu209      O1166   2.368       .  S
Eu209      O1207   2.367       .  S
Eu210      O1179   2.409       .  S
Eu210       O225   2.366       .  S
Eu210      O1174   2.370       .  S
Eu210      O1196   2.356       .  S
Eu211      O1190   2.407       .  S
Eu211       O225   2.373       .  S
Eu211       O213   2.359       .  S
Eu211      O1196   2.358       .  S
Eu211      O1207   2.354       .  S
O212      Eu1194   2.354   1_545  S
O212      Eu1195   2.362   1_545  S
C216        C312   1.477       .  S
C217        C319   1.476       .  S
C218        C323   1.478       .  S
C219        C305   1.476       .  S
C221        N233   1.485       .  S
H222        O223   0.965       .  S
O223      Eu1193   2.360   1_545  S
O223      Eu1195   2.361   1_545  S
H224        O225   0.966       .  S
N226        C230   1.382       .  A
N226        C227   1.384       .  A
C227        C228   1.380       .  A
C227        C289   1.473       .  S
C228        C229   1.335       .  A
C228        H231   1.082       .  S
C229        C230   1.380       .  A
C229        H232   1.083       .  S
N233        C237   1.384       .  A
N233        C234   1.386       .  A
C234        C235   1.379       .  A
C235        C236   1.336       .  A
C235        H238   1.083       .  S
C236        C237   1.380       .  A
C236        H239   1.081       .  S
C237        C290   1.477       .  S
N240        C244   1.386       .  A
N240        C241   1.382       .  A
C241        C242   1.381       .  A
C241        C259   1.469       .  S
C242        C243   1.329       .  A
C242        H245   1.082       .  S
C243        C244   1.379       .  A
C243        H246   1.083       .  S
O247        C258   1.300       .  A
O247       Eu775   2.478   1_554  S
O248        C259   1.292       .  A
O248       Eu774   2.433   1_554  S
O249        C260   1.299       .  A
O249      Eu1239   2.526   1_545  S
O250        C261   1.300       .  A
O250       Eu255   2.535       .  S
O251        C261   1.299       .  A
O251       Eu777   2.530   1_554  S
O252        C260   1.300       .  A
O252       Eu776   2.528   1_554  S
O253        C259   1.276       .  A
O253       Eu255   2.411       .  S
O254        C258   1.274       .  A
O254       Eu255   2.402       .  S
Eu255      O1233   2.530       .  S
Eu255       O265   2.363       .  S
Eu255       O256   2.356       .  S
Eu255      O1241   2.362       .  S
Eu255      O1247   2.366       .  S
O256       Eu777   2.350   1_554  S
O256       Eu774   2.335   1_554  S
O257      Eu1239   2.371   1_545  S
O257      Eu1759   2.331   1_544  S
O257       Eu776   2.361   1_554  S
C260        N301   1.485       .  S
C261        N308   1.490       .  S
H262        O263   0.965       .  S
O263      Eu1239   2.360   1_545  S
O263       Eu776   2.373   1_554  S
O263      Eu1758   2.342   1_544  S
H264        O265   0.966       .  S
O265       Eu775   2.343   1_554  S
O265       Eu777   2.376   1_554  S
O266        C289   1.298       .  A
O266       Eu282   2.467       .  S
O267        C290   1.297       .  A
O267       Eu283   2.464       .  S
O268        C291   1.276       .  A
O268       Eu284   2.411       .  S
O269        C292   1.275       .  A
O269       Eu285   2.407       .  S
O270        C293   1.274       .  A
O270       Eu285   2.401       .  S
O271        C294   1.277       .  A
O271       Eu284   2.415       .  S
O272        C295   1.299       .  A
O272      Eu1270   2.528   1_545  S
O273        C296   1.298       .  A
O273       Eu286   2.524       .  S
O274        C295   1.299       .  A
O274       Eu284   2.526       .  S
O275        C296   1.299       .  A
O275       Eu285   2.529       .  S
O276        C291   1.295       .  A
O276      Eu1266   2.452   1_545  S
O277        C294   1.297       .  A
O277      Eu1267   2.462   1_545  S
O278        C293   1.297       .  A
O278       Eu283   2.462       .  S
O279        C292   1.295       .  A
O279       Eu282   2.452       .  S
O280        C289   1.275       .  A
O280       Eu286   2.406       .  S
O281        C290   1.276       .  A
O281       Eu286   2.412       .  S
Eu282       O740   2.464       .  S
Eu282      O1260   2.461       .  S
Eu282       O300   2.344       .  S
Eu282       O748   2.330       .  S
Eu282      O1739   2.341       .  S
Eu282      O1272   2.324       .  S
Eu283       O739   2.470       .  S
Eu283      O1261   2.457       .  S
Eu283       O287   2.332       .  S
Eu283      O1733   2.332       .  S
Eu283       O757   2.339       .  S
Eu283      O1282   2.336       .  S
Eu284       O744   2.525       .  S
Eu284       O298   2.372       .  S
Eu284       O288   2.360       .  S
Eu284       O749   2.361       .  S
Eu284       O755   2.372       .  S
Eu285       O743   2.517       .  S
Eu285       O287   2.358       .  S
Eu285       O300   2.374       .  S
Eu285       O748   2.355       .  S
Eu285       O757   2.379       .  S
Eu286      O1256   2.517       .  S
Eu286       O287   2.355       .  S
Eu286       O300   2.371       .  S
Eu286      O1282   2.369       .  S
Eu286      O1272   2.358       .  S
O288      Eu1266   2.330   1_545  S
O288      Eu1270   2.354   1_545  S
C291        C412   1.475       .  S
C292        C480   1.474       .  S
C293        C473   1.473       .  S
C294        C490   1.478       .  S
C295        N322   1.485       .  S
C296        N315   1.486       .  S
H297        O298   0.965       .  S
O298      Eu1267   2.339   1_545  S
O298      Eu1270   2.365   1_545  S
H299        O300   0.967       .  S
N301        C305   1.385       .  A
N301        C302   1.384       .  A
C302        C303   1.381       .  A
C302        C429   1.475       .  S
C303        C304   1.335       .  A
C303        H306   1.084       .  S
C304        C305   1.381       .  A
C304        H307   1.083       .  S
N308        C312   1.386       .  A
N308        C309   1.387       .  A
C309        C310   1.380       .  A
C309        C461   1.473       .  S
C310        C311   1.332       .  A
C310        H313   1.083       .  S
C311        C312   1.381       .  A
C311        H314   1.083       .  S
N315        C319   1.386       .  A
N315        C316   1.384       .  A
C316        C317   1.379       .  A
C316        C460   1.475       .  S
C317        C318   1.335       .  A
C317        H320   1.082       .  S
C318        C319   1.379       .  A
C318        H321   1.083       .  S
N322        C326   1.386       .  A
N322        C323   1.385       .  A
C323        C324   1.380       .  A
C324        C325   1.333       .  A
C324        H327   1.082       .  S
C325        C326   1.380       .  A
C325        H328   1.083       .  S
C326        C430   1.477       .  S
O329        C340   1.299       .  A
O329       Eu857   2.471   1_654  S
O330        C341   1.297       .  A
O330       Eu856   2.466   1_654  S
O331        C342   1.301       .  A
O331       Eu337   2.535       .  S
O332        C343   1.296       .  A
O332      Eu2305   2.508       .  S
O333        C343   1.300       .  A
O333       Eu859   2.528   1_554  S
O334        C342   1.299       .  A
O334       Eu858   2.531   1_554  S
O335        C341   1.277       .  A
O335       Eu337   2.415   1_655  S
O336        C340   1.274       .  A
O336       Eu337   2.405   1_655  S
Eu337      O2300   2.522   1_455  S
Eu337       O339   2.360       .  S
Eu337       O345   2.364       .  S
Eu337      O2315   2.373   1_455  S
Eu337      O2306   2.357   1_455  S
O338      Eu2305   2.362       .  S
O338       Eu859   2.353   1_554  S
O338      Eu2824   2.327   1_554  S
O339       Eu857   2.336   1_554  S
O339       Eu858   2.368   1_554  S
C342        N390   1.489       .  S
C343        N383   1.484       .  S
H344        O345   0.967       .  S
O345       Eu858   2.369   1_554  S
O345       Eu856   2.345   1_554  S
H346        O347   0.966       .  S
O347      Eu2305   2.375       .  S
O347      Eu2825   2.339   1_554  S
O347       Eu859   2.367   1_554  S
O348        C371   1.297       .  A
O348       Eu364   2.464   1_455  S
O349        C372   1.294       .  A
O349       Eu365   2.445       .  S
O350        C373   1.275       .  A
O350       Eu366   2.407       .  S
O351        C374   1.275       .  A
O351       Eu367   2.403       .  S
O352        C375   1.277       .  A
O352       Eu367   2.416       .  S
O353        C376   1.273       .  A
O353       Eu366   2.399       .  S
O354        C377   1.299       .  A
O354       Eu368   2.528   1_455  S
O355        C378   1.298       .  A
O355      Eu2336   2.522       .  S
O356        C377   1.297       .  A
O356       Eu366   2.518       .  S
O357        C378   1.298       .  A
O357       Eu367   2.523       .  S
O358        C373   1.294       .  A
O358       Eu364   2.445   1_455  S
O359        C376   1.298       .  A
O359       Eu365   2.468   1_455  S
O360        C375   1.296       .  A
O360      Eu2333   2.457       .  S
O361        C374   1.298       .  A
O361      Eu2332   2.465       .  S
O362        C371   1.275       .  A
O362       Eu368   2.404   1_455  S
O363        C372   1.275       .  A
O363       Eu368   2.411       .  S
Eu364       O822   2.460   1_655  S
Eu364      O2329   2.451       .  S
Eu364       O370   2.327   1_655  S
Eu364      O2798   2.333       .  S
Eu364       O837   2.346   1_655  S
Eu364      O2350   2.339       .  S
Eu365       O821   2.448       .  S
Eu365      O2328   2.470       .  S
Eu365       O380   2.341   1_655  S
Eu365       O831   2.335   1_655  S
Eu365      O2807   2.338       .  S
Eu365      O2337   2.327       .  S
Eu366       O826   2.522       .  S
Eu366       O380   2.363       .  S
Eu366       O370   2.361       .  S
Eu366       O831   2.370       .  S
Eu366       O837   2.358       .  S
Eu367       O825   2.524       .  S
Eu367       O369   2.358       .  S
Eu367       O382   2.375       .  S
Eu367       O830   2.357       .  S
Eu367       O839   2.364       .  S
Eu368      O2323   2.522       .  S
Eu368       O380   2.364   1_655  S
Eu368       O370   2.355   1_655  S
Eu368      O2337   2.357       .  S
Eu368      O2350   2.370       .  S
O369      Eu2333   2.334       .  S
O369      Eu2336   2.357       .  S
C373        C483   1.472       .  S
C374        C476   1.473       .  S
C375        C487   1.477       .  S
C376        C415   1.475       .  S
C377        N397   1.486       .  S
C378        N404   1.485       .  S
H379        O380   0.965       .  S
H381        O382   0.966       .  S
O382      Eu2332   2.344       .  S
O382      Eu2336   2.360       .  S
N383        C387   1.386       .  A
N383        C384   1.382       .  A
C384        C385   1.380       .  A
C384        C464   1.472       .  S
C385        C386   1.332       .  A
C385        H388   1.082       .  S
C386        C387   1.378       .  A
C386        H389   1.083       .  S
N390        C394   1.386       .  A
N390        C391   1.388       .  A
C391        C392   1.380       .  A
C391        C465   1.477       .  S
C392        C393   1.331       .  A
C392        H395   1.083       .  S
C393        C394   1.381       .  A
C393        H396   1.082       .  S
N397        C401   1.384       .  A
N397        C398   1.384       .  A
C398        C399   1.380       .  A
C399        C400   1.330       .  A
C399        H402   1.083       .  S
C400        C401   1.379       .  A
C400        H403   1.082       .  S
C401        C462   1.471       .  S
N404        C408   1.384       .  A
N404        C405   1.385       .  A
C405        C406   1.380       .  A
C406        C407   1.334       .  A
C406        H409   1.083       .  S
C407        C408   1.380       .  A
C407        H410   1.083       .  S
C408        C463   1.474       .  S
N411        C415   1.388       .  A
N411        C412   1.386       .  A
N411        C431   1.488       .  S
C412        C413   1.381       .  A
C413        C414   1.329       .  A
C413        H416   1.083       .  S
C414        C415   1.379       .  A
C414        H417   1.083       .  S
O418        C429   1.295       .  A
O418       Eu454   2.451       .  S
O419        C430   1.297       .  A
O419       Eu453   2.461       .  S
O420        C431   1.301       .  A
O420       Eu426   2.535       .  S
O421        C432   1.298       .  A
O421       Eu426   2.523       .  S
O422        C432   1.299       .  A
O422       Eu456   2.526       .  S
O423        C431   1.298       .  A
O423       Eu455   2.522       .  S
O424        C430   1.276       .  A
O424       Eu426   2.411       .  S
O425        C429   1.278       .  A
O425       Eu918   2.422   1_554  S
Eu426       O917   2.407       .  S
Eu426       O427   2.361       .  S
Eu426       O434   2.368       .  S
Eu426       O928   2.378       .  S
Eu426       O920   2.357       .  S
O427       Eu456   2.358       .  S
O427       Eu453   2.331       .  S
O428       Eu454   2.327       .  S
O428       Eu918   2.357   1_554  S
O428       Eu947   2.364   1_554  S
C432        N486   1.485       .  S
H433        O434   0.967       .  S
O434       Eu455   2.375       .  S
O434       Eu453   2.337       .  S
H435        O436   0.966       .  S
O436       Eu454   2.347       .  S
O436       Eu918   2.366   1_554  S
O436       Eu948   2.366   1_554  S
O437        C460   1.297       .  A
O437       Eu453   2.461       .  S
O438        C461   1.297       .  A
O438       Eu454   2.459       .  S
O439        C462   1.274       .  A
O439       Eu455   2.401       .  S
O440        C463   1.276       .  A
O440       Eu456   2.409       .  S
O441        C464   1.274       .  A
O441       Eu948   2.403   1_554  S
O442        C465   1.275       .  A
O442       Eu947   2.407   1_554  S
O443        C466   1.297       .  A
O443       Eu457   2.520       .  S
O444        C467   1.299       .  A
O444       Eu457   2.525       .  S
O445        C466   1.300       .  A
O445       Eu455   2.532       .  S
O446        C467   1.298       .  A
O446       Eu456   2.521       .  S
O447        C462   1.296       .  A
O447       Eu453   2.454       .  S
O448        C465   1.297       .  A
O448       Eu454   2.462       .  S
O449        C464   1.294       .  A
O449       Eu454   2.450       .  S
O450        C463   1.296       .  A
O450       Eu453   2.460       .  S
O451        C460   1.275       .  A
O451       Eu457   2.408       .  S
O452        C461   1.274       .  A
O452       Eu949   2.401   1_554  S
Eu453       O471   2.335       .  S
Eu453       O459   2.332       .  S
Eu454       O458   2.331       .  S
Eu454       O469   2.335       .  S
Eu455       O934   2.403       .  S
Eu455       O459   2.353       .  S
Eu455       O920   2.355       .  S
Eu455       O961   2.369       .  S
Eu456       O933   2.404       .  S
Eu456       O471   2.369       .  S
Eu456       O928   2.374       .  S
Eu456       O950   2.360       .  S
Eu457       O944   2.397       .  S
Eu457       O471   2.363       .  S
Eu457       O459   2.353       .  S
Eu457       O950   2.360       .  S
Eu457       O961   2.374       .  S
O458       Eu948   2.362   1_554  S
O458       Eu949   2.358   1_554  S
C466        N479   1.487       .  S
C467        N472   1.485       .  S
H468        O469   0.967       .  S
O469       Eu947   2.366   1_554  S
O469       Eu949   2.370   1_554  S
H470        O471   0.965       .  S
N472        C476   1.385       .  A
N472        C473   1.385       .  A
C473        C474   1.379       .  A
C474        C475   1.331       .  A
C474        H477   1.082       .  S
C475        C476   1.379       .  A
C475        H478   1.083       .  S
N479        C483   1.385       .  A
N479        C480   1.387       .  A
C480        C481   1.380       .  A
C481        C482   1.327       .  A
C481        H484   1.083       .  S
C482        C483   1.381       .  A
C482        H485   1.083       .  S
N486        C490   1.385       .  A
N486        C487   1.384       .  A
C487        C488   1.380       .  A
C488        C489   1.336       .  A
C488        H491   1.083       .  S
C489        C490   1.381       .  A
C489        H492   1.083       .  S
N493       C2465   1.384       .  A
N493       C2462   1.383       .  A
N493       C2479   1.483       .  S
C494       N2461   1.383       .  A
C494        C495   1.380       .  A
C494        C586   1.470       .  S
C495        C496   1.330       .  A
C495        H498   1.082       .  S
C496        C497   1.380       .  A
C496        H499   1.084       .  S
C497       N2461   1.384       .  A
C497        C832   1.469       .  S
O500        C511   1.299       .  A
O500       Eu536   2.523       .  S
O501        C512   1.299       .  A
O501       Eu535   2.531       .  S
O502        C513   1.274       .  A
O502       Eu508   2.401   1_455  S
O503        C514   1.276       .  A
O503      Eu2476   2.412       .  S
O504        C514   1.297       .  A
O504       Eu538   2.459       .  S
O505        C513   1.295       .  A
O505       Eu537   2.452       .  S
O506        C512   1.299       .  A
O506       Eu508   2.526   1_455  S
O507        C511   1.299       .  A
O507       Eu508   2.528       .  S
Eu508      O2471   2.414       .  S
Eu508      O2486   2.366       .  S
Eu508       O510   2.358   1_655  S
Eu508      O2477   2.350       .  S
Eu508       O516   2.376   1_655  S
O509      Eu2476   2.345       .  S
O509       Eu538   2.334       .  S
O509      Eu2503   2.355       .  S
O510       Eu536   2.356   1_455  S
O510       Eu537   2.331       .  S
C511       N2461   1.486       .  S
C512       N2529   1.487       .  S
C513        C630   1.470       .  S
C514        C637   1.476       .  S
H515        O516   0.967       .  S
O516       Eu537   2.341       .  S
O516       Eu535   2.365       .  S
H517        O518   0.968       .  S
O518      Eu2476   2.378       .  S
O518      Eu2504   2.376       .  S
O518       Eu538   2.337       .  S
O519        C542   1.298       .  A
O519       Eu535   2.521   1_655  S
O520        C543   1.301       .  A
O520       Eu536   2.538   1_455  S
O521        C544   1.298       .  A
O521       Eu537   2.468       .  S
O522        C545   1.292       .  A
O522       Eu538   2.431       .  S
O523        C546   1.297       .  A
O523       Eu538   2.461       .  S
O524        C547   1.297       .  A
O524       Eu537   2.459       .  S
O525        C548   1.275       .  A
O525       Eu539   2.403   1_455  S
O526        C549   1.276       .  A
O526      Eu2507   2.418       .  S
O527        C548   1.297       .  A
O527       Eu537   2.463       .  S
O528        C549   1.296       .  A
O528       Eu538   2.457       .  S
O529        C544   1.275       .  A
O529       Eu535   2.410       .  S
O530        C547   1.276       .  A
O530       Eu536   2.411   1_455  S
O531        C546   1.274       .  A
O531      Eu2504   2.399       .  S
O532        C545   1.277       .  A
O532      Eu2503   2.417       .  S
O533        C542   1.299       .  A
O533       Eu539   2.523       .  S
O534        C543   1.299       .  A
O534       Eu539   2.531   1_455  S
Eu535      O2500   2.408   1_455  S
Eu535      O2477   2.355   1_455  S
Eu535      O2521   2.379   1_455  S
Eu535       O541   2.356       .  S
Eu536      O2499   2.403       .  S
Eu536      O2486   2.377       .  S
Eu536      O2508   2.357       .  S
Eu536       O551   2.372   1_655  S
Eu537       O551   2.343       .  S
Eu537       O541   2.322       .  S
Eu538       O540   2.322       .  S
Eu538       O553   2.346       .  S
Eu539      O2494   2.404       .  S
Eu539      O2508   2.356       .  S
Eu539       O551   2.374   1_655  S
Eu539      O2521   2.374       .  S
Eu539       O541   2.359   1_655  S
O540      Eu2504   2.354       .  S
O540      Eu2507   2.354       .  S
C542        N554   1.484       .  S
C543        N568   1.490       .  S
C544        C890   1.478       .  S
C545        C897   1.472       .  S
C546        C879   1.472       .  S
C547        C886   1.473       .  S
C548        C651   1.475       .  S
C549        C647   1.479       .  S
H550        O551   0.967       .  S
H552        O553   0.966       .  S
O553      Eu2503   2.372       .  S
O553      Eu2507   2.366       .  S
N554        C558   1.387       .  A
N554        C555   1.388       .  A
C555        C556   1.380       .  A
C555        C863   1.480       .  S
C556        C557   1.332       .  A
C556        H559   1.083       .  S
C557        C558   1.380       .  A
C557        H560   1.083       .  S
C558        C617   1.481       .  S
N561       C2533   1.384       .  A
N561       C2530   1.382       .  A
N561       C2480   1.488       .  S
C562       N2529   1.384       .  A
C562        C563   1.380       .  A
C562        C587   1.469       .  S
C563        C564   1.333       .  A
C563        H566   1.084       .  S
C564        C565   1.381       .  A
C564        H567   1.083       .  S
C565       N2529   1.384       .  A
C565        C864   1.473       .  S
N568        C572   1.387       .  A
N568        C569   1.386       .  A
C569        C570   1.380       .  A
C569        C833   1.474       .  S
C570        C571   1.333       .  A
C570        H573   1.084       .  S
C571        C572   1.380       .  A
C571        H574   1.082       .  S
C572        C618   1.475       .  S
O575        C586   1.295       .  A
O575      Eu1595   2.449   1_545  S
O576        C587   1.296       .  A
O576      Eu1594   2.452   1_445  S
O577        C588   1.299       .  A
O577      Eu2551   2.530       .  S
O578        C589   1.299       .  A
O578       Eu583   2.529   1_455  S
O579        C589   1.300       .  A
O579      Eu1597   2.533   1_545  S
O580        C588   1.300       .  A
O580      Eu1596   2.533   1_545  S
O581        C587   1.274       .  A
O581       Eu583   2.398   1_455  S
O582        C586   1.274       .  A
O582       Eu583   2.402       .  S
Eu583      O2545   2.533       .  S
Eu583       O593   2.372   1_655  S
Eu583      O2553   2.354       .  S
Eu583       O584   2.356   1_655  S
Eu583      O2559   2.370       .  S
O584      Eu1597   2.356   1_545  S
O584      Eu1594   2.330   1_445  S
O585      Eu2551   2.355       .  S
O585      Eu3563   2.340   1_545  S
O585      Eu1596   2.356   1_545  S
C588        N636   1.488       .  S
C589        N629   1.490       .  S
H590        O591   0.967       .  S
O591      Eu2551   2.371       .  S
O591      Eu1596   2.367   1_545  S
O591      Eu3562   2.339   1_545  S
H592        O593   0.967       .  S
O593      Eu1595   2.334   1_445  S
O593      Eu1597   2.369   1_545  S
O594        C617   1.297       .  A
O594       Eu610   2.464       .  S
O595        C618   1.298       .  A
O595       Eu611   2.466   1_455  S
O596        C619   1.276       .  A
O596       Eu612   2.412       .  S
O597        C620   1.276       .  A
O597       Eu613   2.412       .  S
O598        C621   1.276       .  A
O598       Eu613   2.411       .  S
O599        C622   1.279       .  A
O599       Eu612   2.426       .  S
O600        C623   1.298       .  A
O600      Eu2582   2.524       .  S
O601        C624   1.298       .  A
O601       Eu614   2.517   1_455  S
O602        C623   1.300       .  A
O602       Eu612   2.529       .  S
O603        C624   1.298       .  A
O603       Eu613   2.521       .  S
O604        C619   1.300       .  A
O604      Eu2578   2.476       .  S
O605        C622   1.297       .  A
O605      Eu2579   2.460       .  S
O606        C621   1.298       .  A
O606       Eu611   2.469   1_455  S
O607        C620   1.297       .  A
O607       Eu610   2.458   1_455  S
O608        C617   1.276       .  A
O608       Eu614   2.415       .  S
O609        C618   1.274       .  A
O609       Eu614   2.405   1_455  S
Eu610      O1560   2.476   1_655  S
Eu610      O2572   2.463       .  S
Eu610      O1568   2.333   1_655  S
Eu610      O3543   2.341       .  S
Eu610       O628   2.341   1_655  S
Eu610      O2584   2.332       .  S
Eu611      O1559   2.466       .  S
Eu611      O2573   2.466       .  S
Eu611      O3537   2.329       .  S
Eu611      O1577   2.343   1_655  S
Eu611       O615   2.332   1_655  S
Eu611      O2594   2.344       .  S
Eu612      O1564   2.520       .  S
Eu612      O1569   2.366       .  S
Eu612      O1575   2.368       .  S
Eu612       O626   2.358       .  S
Eu612       O616   2.369       .  S
Eu613      O1563   2.533       .  S
Eu613      O1568   2.357       .  S
Eu613      O1577   2.373       .  S
Eu613       O615   2.362       .  S
Eu613       O628   2.376       .  S
Eu614      O2568   2.525       .  S
Eu614       O615   2.363   1_655  S
Eu614      O2594   2.371       .  S
Eu614       O628   2.372   1_655  S
Eu614      O2584   2.355       .  S
O616      Eu2578   2.334       .  S
O616      Eu2582   2.363       .  S
C619        C726   1.480       .  S
C620        C722   1.477       .  S
C621        C736   1.477       .  S
C622        C658   1.480       .  S
C623        N643   1.487       .  S
C624        N650   1.482       .  S
H625        O626   0.965       .  S
O626      Eu2579   2.344       .  S
O626      Eu2582   2.374       .  S
H627        O628   0.966       .  S
N629        C633   1.385       .  A
N629        C630   1.386       .  A
C630        C631   1.380       .  A
C631        C632   1.329       .  A
C631        H634   1.083       .  S
C632        C633   1.381       .  A
C632        H635   1.083       .  S
C633        C675   1.471       .  S
N636        C640   1.386       .  A
N636        C637   1.385       .  A
C637        C638   1.380       .  A
C638        C639   1.336       .  A
C638        H641   1.083       .  S
C639        C640   1.381       .  A
C639        H642   1.082       .  S
C640        C707   1.478       .  S
N643        C647   1.388       .  A
N643        C644   1.387       .  A
C644        C645   1.380       .  A
C644        C706   1.478       .  S
C645        C646   1.331       .  A
C645        H648   1.083       .  S
C646        C647   1.381       .  A
C646        H649   1.083       .  S
N650        C654   1.385       .  A
N650        C651   1.384       .  A
C651        C652   1.379       .  A
C652        C653   1.335       .  A
C652        H655   1.082       .  S
C653        C654   1.379       .  A
C653        H656   1.082       .  S
C654        C676   1.478       .  S
N657        C661   1.385       .  A
N657        C658   1.385       .  A
N657        C712   1.485       .  S
C658        C659   1.381       .  A
C659        C660   1.338       .  A
C659        H662   1.084       .  S
C660        C661   1.379       .  A
C660        H663   1.080       .  S
C661        C750   1.479       .  S
O664        C675   1.295       .  A
O664       Eu700   2.451       .  S
O665        C676   1.298       .  A
O665       Eu699   2.470       .  S
O666        C677   1.299       .  A
O666       Eu672   2.529       .  S
O667        C678   1.300       .  A
O667       Eu672   2.532       .  S
O668        C678   1.299       .  A
O668       Eu702   2.527       .  S
O669        C677   1.300       .  A
O669       Eu701   2.530       .  S
O670        C676   1.276       .  A
O670       Eu672   2.412       .  S
O671        C675   1.274       .  A
O671      Eu1656   2.406   1_545  S
Eu672      O1655   2.403       .  S
Eu672      O1666   2.376       .  S
Eu672      O1658   2.359       .  S
Eu672       O673   2.357       .  S
Eu672       O680   2.371       .  S
O673       Eu702   2.360       .  S
O673       Eu699   2.331       .  S
O674      Eu1656   2.355   1_545  S
O674       Eu700   2.333       .  S
O674      Eu1685   2.358   1_545  S
C677        N732   1.487       .  S
C678        N718   1.489       .  S
H679        O680   0.967       .  S
O680       Eu701   2.372       .  S
O680       Eu699   2.336       .  S
H681        O682   0.967       .  S
O682      Eu1656   2.379   1_545  S
O682       Eu700   2.339       .  S
O682      Eu1686   2.376   1_545  S
O683        C706   1.298       .  A
O683       Eu699   2.466       .  S
O684        C707   1.297       .  A
O684       Eu700   2.458       .  S
O685        C708   1.275       .  A
O685       Eu701   2.406       .  S
O686        C709   1.275       .  A
O686       Eu702   2.404       .  S
O687        C710   1.276       .  A
O687      Eu1686   2.412   1_545  S
O688        C711   1.273       .  A
O688      Eu1685   2.395   1_545  S
O689        C712   1.300       .  A
O689       Eu703   2.531       .  S
O690        C713   1.298       .  A
O690       Eu703   2.525       .  S
O691        C712   1.299       .  A
O691       Eu701   2.528       .  S
O692        C713   1.299       .  A
O692       Eu702   2.524       .  S
O693        C708   1.296       .  A
O693       Eu699   2.454       .  S
O694        C711   1.296       .  A
O694       Eu700   2.456       .  S
O695        C710   1.297       .  A
O695       Eu700   2.464       .  S
O696        C709   1.297       .  A
O696       Eu699   2.463       .  S
O697        C706   1.275       .  A
O697       Eu703   2.408       .  S
O698        C707   1.277       .  A
O698      Eu1687   2.420   1_545  S
Eu699       O717   2.331       .  S
Eu699       O705   2.342       .  S
Eu700       O704   2.330       .  S
Eu700       O715   2.336       .  S
Eu701      O1672   2.412       .  S
Eu701      O1658   2.358       .  S
Eu701      O1699   2.373       .  S
Eu701       O705   2.368       .  S
Eu702      O1671   2.405       .  S
Eu702      O1666   2.369       .  S
Eu702      O1688   2.361       .  S
Eu702       O717   2.361       .  S
Eu703      O1682   2.408       .  S
Eu703      O1688   2.363       .  S
Eu703      O1699   2.371       .  S
Eu703       O717   2.369       .  S
Eu703       O705   2.366       .  S
O704      Eu1686   2.353   1_545  S
O704      Eu1687   2.355   1_545  S
C708        C804   1.472       .  S
C709        C811   1.476       .  S
C710        C815   1.477       .  S
C711        C797   1.469       .  S
C713        N725   1.484       .  S
H714        O715   0.966       .  S
O715      Eu1685   2.373   1_545  S
O715      Eu1687   2.370   1_545  S
H716        O717   0.966       .  S
N718        C722   1.388       .  A
N718        C719   1.389       .  A
C719        C720   1.380       .  A
C719        C781   1.478       .  S
C720        C721   1.329       .  A
C720        H723   1.083       .  S
C721        C722   1.380       .  A
C721        H724   1.083       .  S
N725        C729   1.384       .  A
N725        C726   1.387       .  A
C726        C727   1.380       .  A
C727        C728   1.337       .  A
C727        H730   1.083       .  S
C728        C729   1.380       .  A
C728        H731   1.083       .  S
C729        C782   1.477       .  S
N732        C736   1.385       .  A
N732        C733   1.384       .  A
C733        C734   1.379       .  A
C733        C751   1.472       .  S
C734        C735   1.335       .  A
C734        H737   1.083       .  S
C735        C736   1.380       .  A
C735        H738   1.082       .  S
O739        C750   1.299       .  A
O740        C751   1.298       .  A
O741        C752   1.298       .  A
O741      Eu1731   2.520   1_545  S
O742        C753   1.300       .  A
O742       Eu747   2.530       .  S
O743        C753   1.297       .  A
O744        C752   1.299       .  A
O745        C751   1.274       .  A
O745       Eu747   2.398       .  S
O746        C750   1.277       .  A
O746       Eu747   2.416       .  S
Eu747      O1725   2.531       .  S
Eu747       O757   2.371       .  S
Eu747      O1733   2.350       .  S
Eu747       O748   2.358       .  S
Eu747      O1739   2.375       .  S
O749      Eu1731   2.362   1_545  S
O749      Eu1267   2.336   1_545  S
C752        N793   1.485       .  S
C753        N800   1.486       .  S
H754        O755   0.967       .  S
O755      Eu1731   2.370   1_545  S
O755      Eu1266   2.345   1_545  S
H756        O757   0.966       .  S
O758        C781   1.297       .  A
O758       Eu774   2.463       .  S
O759        C782   1.297       .  A
O759       Eu775   2.463       .  S
O760        C783   1.276   1_556  A
O760       Eu776   2.408       .  S
O761        C784   1.276       .  A
O761       Eu777   2.408   1_554  S
O762        C785   1.276       .  A
O762       Eu777   2.412       .  S
O763        C786   1.276       .  A
O763       Eu776   2.412       .  S
O764        C787   1.299       .  A
O764      Eu1762   2.528   1_545  S
O765        C788   1.297       .  A
O765       Eu778   2.514       .  S
O766        C787   1.301       .  A
O766       Eu776   2.535       .  S
O767        C788   1.299       .  A
O767       Eu777   2.522       .  S
O768        C783   1.295       .  A
O768      Eu1758   2.452   1_544  S
O769        C786   1.299       .  A
O769      Eu1759   2.476   1_545  S
O770        C785   1.297       .  A
O770       Eu775   2.459       .  S
O771        C784   1.299       .  A
O771       Eu774   2.476   1_554  S
O772        C781   1.274       .  A
O772       Eu778   2.405       .  S
O773        C782   1.276       .  A
O773       Eu778   2.410       .  S
Eu774      O1752   2.460   1_556  S
Eu774      O1247   2.346   1_556  S
Eu774       O792   2.332       .  S
Eu774      O1764   2.336       .  S
Eu775      O1753   2.470       .  S
Eu775      O1241   2.327   1_556  S
Eu775       O779   2.335       .  S
Eu775      O1774   2.341       .  S
Eu776       O790   2.360       .  S
Eu776       O780   2.368       .  S
Eu777       O779   2.358       .  S
Eu777       O792   2.377       .  S
Eu778      O1748   2.527       .  S
Eu778       O779   2.361       .  S
Eu778      O1774   2.358       .  S
Eu778       O792   2.370       .  S
Eu778      O1764   2.368       .  S
O780      Eu1758   2.338   1_545  S
O780      Eu1762   2.364   1_545  S
C783        C904   1.471       .  S
C784        C972   1.478       .  S
C785        C965   1.478       .  S
C786        C982   1.475       .  S
C787        N814   1.489       .  S
C788        N807   1.482       .  S
H789        O790   0.964       .  S
O790      Eu1759   2.339   1_545  S
O790      Eu1762   2.355   1_545  S
H791        O792   0.967       .  S
N793        C797   1.383       .  A
N793        C794   1.383       .  A
C794        C795   1.380       .  A
C794        C921   1.472       .  S
C795        C796   1.331       .  A
C795        H798   1.082       .  S
C796        C797   1.379       .  A
C796        H799   1.083       .  S
N800        C804   1.385       .  A
N800        C801   1.387       .  A
C801        C802   1.379       .  A
C801        C953   1.474       .  S
C802        C803   1.329       .  A
C802        H805   1.083       .  S
C803        C804   1.379       .  A
C803        H806   1.083       .  S
N807        C811   1.385       .  A
N807        C808   1.384       .  A
C808        C809   1.379       .  A
C808        C952   1.474       .  S
C809        C810   1.333       .  A
C809        H812   1.082       .  S
C810        C811   1.379       .  A
C810        H813   1.082       .  S
N814        C818   1.386       .  A
N814        C815   1.386       .  A
C815        C816   1.380       .  A
C816        C817   1.334       .  A
C816        H819   1.082       .  S
C817        C818   1.380       .  A
C817        H820   1.083       .  S
C818        C922   1.474       .  S
O821        C832   1.295       .  A
O822        C833   1.297       .  A
O823        C834   1.301       .  A
O823       Eu829   2.535   1_455  S
O824        C835   1.299       .  A
O824      Eu2797   2.521       .  S
O825        C835   1.299       .  A
O826        C834   1.298       .  A
O827        C833   1.276       .  A
O827       Eu829   2.413   1_455  S
O828        C832   1.275       .  A
O828       Eu829   2.404       .  S
Eu829      O2792   2.523       .  S
Eu829      O2807   2.369       .  S
Eu829       O831   2.366   1_655  S
Eu829      O2798   2.366       .  S
Eu829       O837   2.360   1_655  S
O830      Eu2797   2.363       .  S
O830      Eu2332   2.331       .  S
C834        N882   1.487       .  S
C835        N875   1.485       .  S
H836        O837   0.965       .  S
H838        O839   0.967       .  S
O839      Eu2797   2.370       .  S
O839      Eu2333   2.341       .  S
O840        C863   1.298   1_455  A
O840       Eu856   2.469       .  S
O841        C864   1.297       .  A
O841       Eu857   2.462       .  S
O842        C865   1.277       .  A
O842       Eu858   2.418   1_554  S
O843        C866   1.276       .  A
O843       Eu859   2.415       .  S
O844        C867   1.275       .  A
O844       Eu859   2.403       .  S
O845        C868   1.276   1_556  A
O845       Eu858   2.407       .  S
O846        C869   1.297       .  A
O846       Eu860   2.515       .  S
O847        C870   1.302       .  A
O847      Eu2828   2.544       .  S
O848        C869   1.302       .  A
O848       Eu858   2.539       .  S
O849        C870   1.297       .  A
O849       Eu859   2.520       .  S
O850        C865   1.298       .  A
O850       Eu856   2.470   1_554  S
O851        C868   1.296       .  A
O851       Eu857   2.458   1_554  S
O852        C867   1.299       .  A
O852      Eu2825   2.475       .  S
O853        C866   1.298       .  A
O853      Eu2824   2.462       .  S
O854        C863   1.276       .  A
O854       Eu860   2.412   1_655  S
O855        C864   1.276       .  A
O855       Eu860   2.411       .  S
Eu856      O2821   2.463   1_455  S
Eu856      O2306   2.331   1_456  S
Eu856      O2842   2.346   1_455  S
Eu856       O862   2.339       .  S
Eu857      O2820   2.472   1_455  S
Eu857      O2315   2.346   1_456  S
Eu857      O2829   2.334   1_455  S
Eu857       O872   2.348       .  S
Eu858       O872   2.363       .  S
Eu858       O862   2.365       .  S
Eu859       O861   2.362       .  S
Eu859       O874   2.372       .  S
Eu860      O2815   2.537   1_455  S
Eu860      O2829   2.361   1_455  S
Eu860       O872   2.371       .  S
Eu860      O2842   2.361   1_455  S
Eu860       O862   2.377       .  S
O861      Eu2825   2.334       .  S
O861      Eu2828   2.356       .  S
C865        C975   1.478       .  S
C866        C968   1.481       .  S
C867        C979   1.475       .  S
C868        C907   1.471       .  S
C869        N889   1.486       .  S
C870        N896   1.490       .  S
H871        O872   0.966       .  S
H873        O874   0.966       .  S
O874      Eu2824   2.347       .  S
O874      Eu2828   2.361       .  S
N875        C879   1.383       .  A
N875        C876   1.383       .  A
C876        C877   1.380       .  A
C876        C956   1.474       .  S
C877        C878   1.337       .  A
C877        H880   1.083       .  S
C878        C879   1.379       .  A
C878        H881   1.083       .  S
N882        C886   1.383       .  A
N882        C883   1.386       .  A
C883        C884   1.379       .  A
C883        C957   1.476       .  S
C884        C885   1.335       .  A
C884        H887   1.081       .  S
C885        C886   1.380       .  A
C885        H888   1.082       .  S
N889        C893   1.383       .  A
N889        C890   1.388       .  A
C890        C891   1.380       .  A
C891        C892   1.334       .  A
C891        H894   1.082       .  S
C892        C893   1.381       .  A
C892        H895   1.082       .  S
C893        C954   1.475       .  S
N896        C900   1.389       .  A
N896        C897   1.384       .  A
C897        C898   1.382       .  A
C898        C899   1.329       .  A
C898        H901   1.083       .  S
C899        C900   1.380       .  A
C899        H902   1.084       .  S
C900        C955   1.475       .  S
N903        C907   1.381       .  A
N903        C904   1.381       .  A
N903        C923   1.482   1_554  S
C904        C905   1.380       .  A
C905        C906   1.335       .  A
C905        H908   1.083       .  S
C906        C907   1.380       .  A
C906        H909   1.083       .  S
O910        C921   1.296       .  A
O910       Eu946   2.454       .  S
O911        C922   1.297       .  A
O911       Eu945   2.462       .  S
O912        C923   1.297       .  A
O912       Eu918   2.514       .  S
O913        C924   1.299       .  A
O913       Eu918   2.525       .  S
O914        C924   1.299       .  A
O914       Eu948   2.528       .  S
O915        C923   1.298       .  A
O915       Eu947   2.520       .  S
O916        C922   1.275       .  A
O916       Eu918   2.404       .  S
O917        C921   1.275       .  A
Eu918       O919   2.350       .  S
Eu918       O926   2.379       .  S
O919       Eu948   2.348       .  S
O919       Eu945   2.317       .  S
O920       Eu946   2.327       .  S
C924        N978   1.487       .  S
H925        O926   0.967       .  S
O926       Eu947   2.376       .  S
O926       Eu945   2.347       .  S
H927        O928   0.967       .  S
O928       Eu946   2.351       .  S
O929        C952   1.296       .  A
O929       Eu945   2.460       .  S
O930        C953   1.297       .  A
O930       Eu946   2.462       .  S
O931        C954   1.278       .  A
O931       Eu947   2.419       .  S
O932        C955   1.273       .  A
O932       Eu948   2.398       .  S
O933        C956   1.275       .  A
O934        C957   1.274       .  A
O935        C958   1.299       .  A
O935       Eu949   2.526   1_554  S
O936        C959   1.301       .  A
O936       Eu949   2.534       .  S
O937        C958   1.300       .  A
O937       Eu947   2.531   1_554  S
O938        C959   1.297       .  A
O938       Eu948   2.519       .  S
O939        C954   1.294       .  A
O939       Eu945   2.447       .  S
O940        C957   1.300       .  A
O940       Eu946   2.478       .  S
O941        C956   1.298       .  A
O941       Eu946   2.471       .  S
O942        C955   1.297       .  A
O942       Eu945   2.463       .  S
O943        C952   1.275       .  A
O943       Eu949   2.406       .  S
O944        C953   1.273       .  A
Eu945       O963   2.341       .  S
Eu945       O951   2.331       .  S
Eu946       O950   2.329       .  S
Eu946       O961   2.344       .  S
Eu947       O951   2.354       .  S
Eu948       O963   2.374       .  S
Eu949       O963   2.374       .  S
Eu949       O951   2.357       .  S
C958        N971   1.486       .  S
C959        N964   1.486       .  S
H960        O961   0.968       .  S
H962        O963   0.967       .  S
N964        C968   1.389       .  A
N964        C965   1.387       .  A
C965        C966   1.380       .  A
C966        C967   1.331       .  A
C966        H969   1.083       .  S
C967        C968   1.380       .  A
C967        H970   1.083       .  S
N971        C975   1.384       .  A
N971        C972   1.385       .  A
C972        C973   1.379       .  A
C973        C974   1.339       .  A
C973        H976   1.082       .  S
C974        C975   1.380       .  A
C974        H977   1.083       .  S
N978        C982   1.383       .  A
N978        C979   1.382       .  A
C979        C980   1.380       .  A
C980        C981   1.342       .  A
C980        H983   1.084       .  S
C981        C982   1.380       .  A
C981        H984   1.083       .  S
N985       C2957   1.389       .  A
N985       C2954   1.388       .  A
N985       C2971   1.491       .  S
C986       N2953   1.387       .  A
C986        C987   1.380       .  A
C986       C1078   1.479       .  S
C987        C988   1.335       .  A
C987        H990   1.082       .  S
C988        C989   1.379       .  A
C988        H991   1.083       .  S
C989       N2953   1.388       .  A
C989       C1324   1.478       .  S
O992       C1003   1.300       .  A
O992      Eu1028   2.533       .  S
O993       C1004   1.299       .  A
O993      Eu1027   2.530   1_455  S
O994       C1005   1.276       .  A
O994      Eu1000   2.413       .  S
O995       C1006   1.275       .  A
O995      Eu2968   2.400       .  S
O996       C1006   1.296       .  A
O996      Eu1030   2.458       .  S
O997       C1005   1.297       .  A
O997      Eu1029   2.458       .  S
O998       C1004   1.300       .  A
O998      Eu1000   2.532       .  S
O999       C1003   1.301       .  A
O999      Eu1000   2.536   1_655  S
Eu1000     O2963   2.408   1_455  S
Eu1000     O2978   2.374   1_455  S
Eu1000     O1002   2.357       .  S
Eu1000     O2969   2.361   1_455  S
Eu1000     O1008   2.376       .  S
O1001     Eu2968   2.357       .  S
O1001     Eu1030   2.328       .  S
O1001     Eu2995   2.353       .  S
O1002     Eu1028   2.356   1_455  S
O1002     Eu1029   2.333       .  S
C1003      N2953   1.490       .  S
C1004      N3021   1.490       .  S
C1005      C1122   1.477       .  S
C1006      C1129   1.471       .  S
H1007      O1008   0.967       .  S
O1008     Eu1029   2.345       .  S
O1008     Eu1027   2.375   1_455  S
H1009      O1010   0.967       .  S
O1010     Eu2968   2.371       .  S
O1010     Eu2996   2.375       .  S
O1010     Eu1030   2.345       .  S
O1011      C1034   1.298       .  A
O1011     Eu1027   2.524   1_455  S
O1012      C1035   1.300       .  A
O1012     Eu1028   2.533       .  S
O1013      C1036   1.298       .  A
O1013     Eu1029   2.466       .  S
O1014      C1037   1.296       .  A
O1014     Eu1030   2.457       .  S
O1015      C1038   1.296       .  A
O1015     Eu1030   2.454       .  S
O1016      C1039   1.297       .  A
O1016     Eu1029   2.462       .  S
O1017      C1040   1.276       .  A
O1017     Eu1031   2.409   1_455  S
O1018      C1041   1.275       .  A
O1018     Eu2999   2.411       .  S
O1019      C1040   1.296       .  A
O1019     Eu1029   2.458       .  S
O1020      C1041   1.298       .  A
O1020     Eu1030   2.465       .  S
O1021      C1036   1.275       .  A
O1021     Eu1027   2.404   1_455  S
O1022      C1039   1.276       .  A
O1022     Eu1028   2.412   1_455  S
O1023      C1038   1.274       .  A
O1023     Eu2996   2.400       .  S
O1024      C1037   1.277       .  A
O1024     Eu2995   2.418       .  S
O1025      C1034   1.300       .  A
O1025     Eu1031   2.532   1_455  S
O1026      C1035   1.298       .  A
O1026     Eu1031   2.520       .  S
Eu1027     O2992   2.415       .  S
Eu1027     O2969   2.359       .  S
Eu1027     O3013   2.372       .  S
Eu1027     O1033   2.365   1_655  S
Eu1028     O2991   2.403       .  S
Eu1028     O2978   2.370       .  S
Eu1028     O3000   2.356       .  S
Eu1028     O1043   2.365   1_655  S
Eu1029     O1043   2.344       .  S
Eu1029     O1033   2.331       .  S
Eu1030     O1032   2.320       .  S
Eu1030     O1045   2.342       .  S
Eu1031     O2986   2.406       .  S
Eu1031     O3000   2.358       .  S
Eu1031     O1043   2.373   1_655  S
Eu1031     O3013   2.374       .  S
Eu1031     O1033   2.353   1_655  S
O1032     Eu2996   2.352       .  S
O1032     Eu2999   2.348       .  S
C1034      N1046   1.488       .  S
C1035      N1060   1.484       .  S
C1036      C1382   1.477       .  S
C1037      C1389   1.479       .  S
C1038      C1371   1.472       .  S
C1039      C1378   1.475       .  S
C1040      C1143   1.471       .  S
C1041      C1139   1.480       .  S
H1042      O1043   0.966       .  S
H1044      O1045   0.966       .  S
O1045     Eu2995   2.371       .  S
O1045     Eu2999   2.372       .  S
N1046      C1050   1.383       .  A
N1046      C1047   1.386       .  A
C1047      C1048   1.380       .  A
C1047      C1355   1.473       .  S
C1048      C1049   1.333       .  A
C1048      H1051   1.084       .  S
C1049      C1050   1.381       .  A
C1049      H1052   1.084       .  S
C1050      C1109   1.472       .  S
N1053      C3025   1.386       .  A
N1053      C3022   1.385       .  A
N1053      C2972   1.484       .  S
C1054      N3021   1.387       .  A
C1054      C1055   1.380       .  A
C1054      C1079   1.473       .  S
C1055      C1056   1.327       .  A
C1055      H1058   1.083       .  S
C1056      C1057   1.381       .  A
C1056      H1059   1.083       .  S
C1057      N3021   1.387       .  A
C1057      C1356   1.474       .  S
N1060      C1064   1.385       .  A
N1060      C1061   1.383       .  A
C1061      C1062   1.381       .  A
C1061      C1325   1.478       .  S
C1062      C1063   1.338       .  A
C1062      H1065   1.083       .  S
C1063      C1064   1.380       .  A
C1063      H1066   1.084       .  S
C1064      C1110   1.477       .  S
O1067      C1078   1.298       .  A
O1068      C1079   1.297       .  A
O1069      C1080   1.297       .  A
O1069     Eu3043   2.515       .  S
O1070      C1081   1.302       .  A
O1070     Eu1075   2.541       .  S
O1071      C1081   1.299       .  A
O1072      C1080   1.298       .  A
O1073      C1079   1.274       .  A
O1073     Eu1075   2.402       .  S
O1074      C1078   1.277       .  A
O1074     Eu1075   2.415   1_655  S
Eu1075     O3037   2.532   1_455  S
Eu1075     O1085   2.373       .  S
Eu1075     O3045   2.356   1_455  S
Eu1075     O1076   2.359       .  S
Eu1075     O3051   2.384   1_455  S
O1077     Eu3043   2.353       .  S
O1077     Eu2087   2.335       .  S
C1080      N1128   1.481       .  S
C1081      N1121   1.491       .  S
H1082      O1083   0.967       .  S
O1083     Eu3043   2.381       .  S
O1083     Eu2086   2.341       .  S
H1084      O1085   0.966       .  S
O1086      C1109   1.295       .  A
O1086     Eu1102   2.451       .  S
O1087      C1110   1.298       .  A
O1087     Eu1103   2.468   1_655  S
O1088      C1111   1.276       .  A
O1088     Eu1104   2.409       .  S
O1089      C1112   1.277   1_565  A
O1089     Eu1105   2.416       .  S
O1090      C1113   1.275       .  A
O1090     Eu1105   2.405       .  S
O1091      C1114   1.276       .  A
O1091     Eu1104   2.411   1_545  S
O1092      C1115   1.301       .  A
O1092     Eu3074   2.535       .  S
O1093      C1116   1.298       .  A
O1093     Eu1106   2.516   1_455  S
O1094      C1115   1.301       .  A
O1094     Eu1104   2.535       .  S
O1095      C1116   1.298       .  A
O1095     Eu1105   2.521       .  S
O1096      C1111   1.300       .  A
O1096     Eu3070   2.480       .  S
O1097      C1114   1.297   1_565  A
O1097     Eu3071   2.464       .  S
O1098      C1113   1.298       .  A
O1098     Eu1103   2.466       .  S
O1099      C1112   1.296   1_565  A
O1099     Eu1102   2.457       .  S
O1100      C1109   1.276       .  A
O1100     Eu1106   2.412   1_455  S
O1101      C1110   1.276       .  A
O1101     Eu1106   2.409       .  S
Eu1102     O3064   2.461   1_455  S
Eu1102     O2067   2.334   1_465  S
Eu1102     O1120   2.339       .  S
Eu1102     O3076   2.335   1_455  S
Eu1103     O3065   2.447   1_455  S
Eu1103     O2061   2.339   1_465  S
Eu1103     O1107   2.324       .  S
Eu1103     O3086   2.337   1_455  S
Eu1104     O1118   2.361       .  S
Eu1104     O1108   2.363       .  S
Eu1105     O1107   2.361       .  S
Eu1105     O1120   2.361       .  S
Eu1106     O3060   2.518       .  S
Eu1106     O1107   2.360   1_655  S
Eu1106     O3086   2.363       .  S
Eu1106     O1120   2.368   1_655  S
Eu1106     O3076   2.364       .  S
O1108     Eu3070   2.339       .  S
O1108     Eu3074   2.365       .  S
C1111      C1218   1.480       .  S
C1112      C1214   1.476       .  S
C1113      C1228   1.476       .  S
C1114      C1150   1.473       .  S
C1115      N1135   1.490       .  S
C1116      N1142   1.483       .  S
H1117      O1118   0.965       .  S
O1118     Eu3071   2.340       .  S
O1118     Eu3074   2.367       .  S
H1119      O1120   0.965       .  S
N1121      C1125   1.389       .  A
N1121      C1122   1.388       .  A
C1122      C1123   1.380       .  A
C1123      C1124   1.332       .  A
C1123      H1126   1.082       .  S
C1124      C1125   1.380       .  A
C1124      H1127   1.084       .  S
C1125      C1167   1.478       .  S
N1128      C1132   1.381       .  A
N1128      C1129   1.381       .  A
C1129      C1130   1.379       .  A
C1130      C1131   1.335       .  A
C1130      H1133   1.083       .  S
C1131      C1132   1.379       .  A
C1131      H1134   1.079       .  S
C1132      C1199   1.471       .  S
N1135      C1139   1.388       .  A
N1135      C1136   1.389       .  A
C1136      C1137   1.380       .  A
C1136      C1198   1.480       .  S
C1137      C1138   1.334       .  A
C1137      H1140   1.083       .  S
C1138      C1139   1.380       .  A
C1138      H1141   1.083       .  S
N1142      C1146   1.381       .  A
N1142      C1143   1.382       .  A
C1143      C1144   1.380       .  A
C1144      C1145   1.336       .  A
C1144      H1147   1.083       .  S
C1145      C1146   1.380       .  A
C1145      H1148   1.083       .  S
C1146      C1168   1.472       .  S
N1149      C1153   1.385       .  A
N1149      C1150   1.383       .  A
N1149      C1204   1.488       .  S
C1150      C1151   1.380       .  A
C1151      C1152   1.335       .  A
C1151      H1154   1.081       .  S
C1152      C1153   1.378       .  A
C1152      H1155   1.084       .  S
C1153      C1242   1.471       .  S
O1156      C1167   1.298       .  A
O1156     Eu1192   2.463       .  S
O1157      C1168   1.296       .  A
O1157     Eu1191   2.459       .  S
O1158      C1169   1.298       .  A
O1158     Eu1164   2.520       .  S
O1159      C1170   1.300       .  A
O1159     Eu1164   2.528       .  S
O1160      C1170   1.297       .  A
O1160     Eu1194   2.515       .  S
O1161      C1169   1.300       .  A
O1161     Eu1193   2.528       .  S
O1162      C1168   1.276       .  A
O1162     Eu1164   2.411       .  S
O1163      C1167   1.275       .  A
Eu1164     O1165   2.361       .  S
Eu1164     O1172   2.367       .  S
O1165     Eu1194   2.364       .  S
O1165     Eu1191   2.335       .  S
O1166     Eu1192   2.338       .  S
C1169      N1224   1.484       .  S
C1170      N1210   1.483   1_565  S
H1171      O1172   0.965       .  S
O1172     Eu1193   2.362       .  S
O1172     Eu1191   2.343       .  S
H1173      O1174   0.967       .  S
O1174     Eu1192   2.333       .  S
O1175      C1198   1.300       .  A
O1175     Eu1191   2.476       .  S
O1176      C1199   1.295       .  A
O1176     Eu1192   2.452       .  S
O1177      C1200   1.275       .  A
O1177     Eu1193   2.406       .  S
O1178      C1201   1.275       .  A
O1178     Eu1194   2.405       .  S
O1179      C1202   1.276       .  A
O1180      C1203   1.276       .  A
O1181      C1204   1.301   1_565  A
O1181     Eu1195   2.536       .  S
O1182      C1205   1.297       .  A
O1182     Eu1195   2.519       .  S
O1183      C1204   1.298   1_565  A
O1183     Eu1193   2.523       .  S
O1184      C1205   1.300       .  A
O1184     Eu1194   2.530       .  S
O1185      C1200   1.296       .  A
O1185     Eu1191   2.454       .  S
O1186      C1203   1.298       .  A
O1186     Eu1192   2.468       .  S
O1187      C1202   1.298       .  A
O1187     Eu1192   2.471       .  S
O1188      C1201   1.298       .  A
O1188     Eu1191   2.472       .  S
O1189      C1198   1.276       .  A
O1189     Eu1195   2.411       .  S
O1190      C1199   1.276       .  A
Eu1191     O1209   2.333       .  S
Eu1191     O1197   2.337       .  S
Eu1192     O1196   2.335       .  S
Eu1192     O1207   2.338       .  S
Eu1193     O1197   2.364       .  S
Eu1194     O1209   2.370       .  S
Eu1195     O1209   2.375       .  S
Eu1195     O1197   2.353       .  S
C1200      C1296   1.471       .  S
C1201      C1303   1.476       .  S
C1202      C1307   1.477       .  S
C1203      C1289   1.475       .  S
C1205      N1217   1.485       .  S
H1206      O1207   0.964       .  S
H1208      O1209   0.966       .  S
N1210      C1214   1.383       .  A
N1210      C1211   1.384       .  A
C1211      C1212   1.379       .  A
C1211      C1273   1.476       .  S
C1212      C1213   1.337       .  A
C1212      H1215   1.083       .  S
C1213      C1214   1.381       .  A
C1213      H1216   1.083       .  S
N1217      C1221   1.384       .  A
N1217      C1218   1.386       .  A
C1218      C1219   1.379       .  A
C1219      C1220   1.337       .  A
C1219      H1222   1.083       .  S
C1220      C1221   1.378       .  A
C1220      H1223   1.079       .  S
C1221      C1274   1.476       .  S
N1224      C1228   1.385       .  A
N1224      C1225   1.383       .  A
C1225      C1226   1.380       .  A
C1225      C1243   1.475       .  S
C1226      C1227   1.337       .  A
C1226      H1229   1.083       .  S
C1227      C1228   1.379       .  A
C1227      H1230   1.083       .  S
O1231      C1242   1.299       .  A
O1231     Eu1759   2.475   1_544  S
O1232      C1243   1.295       .  A
O1232     Eu1758   2.453   1_554  S
O1233      C1244   1.300       .  A
O1234      C1245   1.301       .  A
O1234     Eu1239   2.538       .  S
O1235      C1245   1.300       .  A
O1235     Eu1761   2.533   1_554  S
O1236      C1244   1.299       .  A
O1236     Eu1760   2.525   1_554  S
O1237      C1243   1.278       .  A
O1237     Eu1239   2.419       .  S
O1238      C1242   1.272       .  A
O1238     Eu1239   2.389   1_545  S
Eu1239     O1249   2.370       .  S
Eu1239     O1240   2.351       .  S
O1240     Eu1761   2.354   1_554  S
O1240     Eu1758   2.334   1_554  S
O1241     Eu1760   2.361   1_554  S
C1244      N1285   1.486       .  S
C1245      N1292   1.491       .  S
H1246      O1247   0.965       .  S
O1247     Eu1760   2.366   1_554  S
H1248      O1249   0.966       .  S
O1249     Eu1759   2.346   1_554  S
O1249     Eu1761   2.375   1_554  S
O1250      C1273   1.298   1_565  A
O1250     Eu1266   2.469       .  S
O1251      C1274   1.298       .  A
O1251     Eu1267   2.469       .  S
O1252      C1275   1.276       .  A
O1252     Eu1268   2.414       .  S
O1253      C1276   1.275       .  A
O1253     Eu1269   2.402       .  S
O1254      C1277   1.276       .  A
O1254     Eu1269   2.405       .  S
O1255      C1278   1.275       .  A
O1255     Eu1268   2.405       .  S
O1256      C1279   1.298       .  A
O1257      C1280   1.299       .  A
O1257     Eu1270   2.522       .  S
O1258      C1279   1.297       .  A
O1258     Eu1268   2.514       .  S
O1259      C1280   1.298       .  A
O1259     Eu1269   2.521       .  S
O1260      C1275   1.297       .  A
O1261      C1278   1.296       .  A
O1262      C1277   1.296       .  A
O1262     Eu1267   2.458       .  S
O1263      C1276   1.298       .  A
O1263     Eu1266   2.470       .  S
O1264      C1273   1.276       .  A
O1264     Eu1270   2.407   1_545  S
O1265      C1274   1.275       .  A
O1265     Eu1270   2.405       .  S
Eu1266     O1724   2.456       .  S
Eu1266     O1732   2.329       .  S
Eu1266     O1284   2.334       .  S
Eu1267     O1723   2.466   1_565  S
Eu1267     O1741   2.340       .  S
Eu1267     O1271   2.330       .  S
Eu1268     O1728   2.530       .  S
Eu1268     O1733   2.352       .  S
Eu1268     O1739   2.366       .  S
Eu1268     O1282   2.379       .  S
Eu1268     O1272   2.356       .  S
Eu1269     O1727   2.526       .  S
Eu1269     O1732   2.350       .  S
Eu1269     O1741   2.376       .  S
Eu1269     O1271   2.352       .  S
Eu1269     O1284   2.375       .  S
Eu1270     O1271   2.353       .  S
Eu1270     O1284   2.372       .  S
C1275      C1396   1.477       .  S
C1276      C1464   1.473       .  S
C1277      C1457   1.473       .  S
C1278      C1474   1.471       .  S
C1279      N1306   1.480       .  S
C1280      N1299   1.483       .  S
H1281      O1282   0.966       .  S
H1283      O1284   0.967       .  S
N1285      C1289   1.385       .  A
N1285      C1286   1.386       .  A
C1286      C1287   1.381       .  A
C1286      C1413   1.479       .  S
C1287      C1288   1.336       .  A
C1287      H1290   1.083       .  S
C1288      C1289   1.380       .  A
C1288      H1291   1.084       .  S
N1292      C1296   1.385       .  A
N1292      C1293   1.386       .  A
C1293      C1294   1.380       .  A
C1293      C1445   1.470       .  S
C1294      C1295   1.331       .  A
C1294      H1297   1.083       .  S
C1295      C1296   1.381       .  A
C1295      H1298   1.083       .  S
N1299      C1303   1.383       .  A
N1299      C1300   1.383       .  A
C1300      C1301   1.379       .  A
C1300      C1444   1.478       .  S
C1301      C1302   1.340       .  A
C1301      H1304   1.079       .  S
C1302      C1303   1.379       .  A
C1302      H1305   1.083       .  S
N1306      C1310   1.383       .  A
N1306      C1307   1.382       .  A
C1307      C1308   1.378       .  A
C1308      C1309   1.336       .  A
C1308      H1311   1.079       .  S
C1309      C1310   1.377       .  A
C1309      H1312   1.082       .  S
C1310      C1414   1.474       .  S
O1313      C1324   1.301       .  A
O1313     Eu1841   2.480   1_654  S
O1314      C1325   1.296       .  A
O1314     Eu1840   2.456   1_654  S
O1315      C1326   1.301       .  A
O1315     Eu1321   2.537       .  S
O1316      C1327   1.298       .  A
O1316     Eu3289   2.519       .  S
O1317      C1327   1.299       .  A
O1317     Eu1843   2.524   1_554  S
O1318      C1326   1.297       .  A
O1318     Eu1842   2.519   1_554  S
O1319      C1325   1.279       .  A
O1319     Eu1321   2.424   1_655  S
O1320      C1324   1.275       .  A
O1320     Eu1321   2.406   1_655  S
Eu1321     O3284   2.522   1_455  S
Eu1321     O3299   2.377   1_455  S
Eu1321     O1323   2.359       .  S
Eu1321     O3290   2.356   1_455  S
Eu1321     O1329   2.366       .  S
O1322     Eu3289   2.363       .  S
O1322     Eu1843   2.353   1_554  S
O1322     Eu3808   2.327   1_554  S
O1323     Eu1841   2.336   1_554  S
O1323     Eu1842   2.368   1_554  S
C1326      N1374   1.487       .  S
C1327      N1367   1.485       .  S
H1328      O1329   0.967       .  S
O1329     Eu1842   2.368   1_554  S
O1329     Eu1840   2.345   1_554  S
H1330      O1331   0.967       .  S
O1331     Eu3289   2.368       .  S
O1331     Eu3809   2.340   1_554  S
O1331     Eu1843   2.368   1_554  S
O1332      C1355   1.297       .  A
O1332     Eu1348   2.458   1_455  S
O1333      C1356   1.296   1_655  A
O1333     Eu1349   2.457       .  S
O1334      C1357   1.275       .  A
O1334     Eu1350   2.406       .  S
O1335      C1358   1.276       .  A
O1335     Eu1351   2.413       .  S
O1336      C1359   1.275       .  A
O1336     Eu1351   2.406       .  S
O1337      C1360   1.275       .  A
O1337     Eu1350   2.402       .  S
O1338      C1361   1.299       .  A
O1338     Eu1352   2.528   1_455  S
O1339      C1362   1.297       .  A
O1339     Eu3320   2.518       .  S
O1340      C1361   1.299       .  A
O1340     Eu1350   2.525       .  S
O1341      C1362   1.299       .  A
O1341     Eu1351   2.527       .  S
O1342      C1357   1.299       .  A
O1342     Eu1348   2.476   1_455  S
O1343      C1360   1.297       .  A
O1343     Eu1349   2.462   1_455  S
O1344      C1359   1.297       .  A
O1344     Eu3317   2.457       .  S
O1345      C1358   1.297       .  A
O1345     Eu3316   2.460       .  S
O1346      C1355   1.274       .  A
O1346     Eu1352   2.404   1_455  S
O1347      C1356   1.274       .  A
O1347     Eu1352   2.403   1_455  S
Eu1348     O1806   2.446       .  S
Eu1348     O3313   2.465       .  S
Eu1348     O3782   2.331       .  S
Eu1348     O1821   2.343   1_655  S
Eu1348     O3334   2.347       .  S
Eu1348     O1354   2.327   1_655  S
Eu1349     O1805   2.476       .  S
Eu1349     O3312   2.459       .  S
Eu1349     O1815   2.335   1_655  S
Eu1349     O3791   2.335       .  S
Eu1349     O3321   2.341       .  S
Eu1349     O1364   2.343   1_655  S
Eu1350     O1810   2.518       .  S
Eu1350     O1815   2.373       .  S
Eu1350     O1821   2.363       .  S
Eu1350     O1364   2.359       .  S
Eu1350     O1354   2.360       .  S
Eu1351     O1809   2.530       .  S
Eu1351     O1814   2.361       .  S
Eu1351     O1823   2.371       .  S
Eu1351     O1353   2.366       .  S
Eu1351     O1366   2.367       .  S
Eu1352     O3307   2.533       .  S
Eu1352     O3321   2.371       .  S
Eu1352     O1364   2.361   1_655  S
Eu1352     O3334   2.355       .  S
Eu1352     O1354   2.366   1_655  S
O1353     Eu3317   2.339       .  S
O1353     Eu3320   2.368       .  S
C1357      C1467   1.475       .  S
C1358      C1460   1.474       .  S
C1359      C1471   1.472       .  S
C1360      C1399   1.473       .  S
C1361      N1381   1.486       .  S
C1362      N1388   1.485       .  S
H1363      O1364   0.965       .  S
H1365      O1366   0.966       .  S
O1366     Eu3316   2.346       .  S
O1366     Eu3320   2.356       .  S
N1367      C1371   1.384       .  A
N1367      C1368   1.384       .  A
C1368      C1369   1.380       .  A
C1368      C1448   1.474       .  S
C1369      C1370   1.332       .  A
C1369      H1372   1.082       .  S
C1370      C1371   1.380       .  A
C1370      H1373   1.083       .  S
N1374      C1378   1.383       .  A
N1374      C1375   1.386       .  A
C1375      C1376   1.379       .  A
C1375      C1449   1.477       .  S
C1376      C1377   1.338       .  A
C1376      H1379   1.083       .  S
C1377      C1378   1.380       .  A
C1377      H1380   1.082       .  S
N1381      C1385   1.386       .  A
N1381      C1382   1.386       .  A
C1382      C1383   1.379       .  A
C1383      C1384   1.334       .  A
C1383      H1386   1.083       .  S
C1384      C1385   1.379       .  A
C1384      H1387   1.081       .  S
C1385      C1446   1.480       .  S
N1388      C1392   1.385       .  A
N1388      C1389   1.387       .  A
C1389      C1390   1.380       .  A
C1390      C1391   1.331       .  A
C1390      H1393   1.083       .  S
C1391      C1392   1.380       .  A
C1391      H1394   1.083       .  S
C1392      C1447   1.476       .  S
N1395      C1399   1.385       .  A
N1395      C1396   1.386       .  A
N1395      C1415   1.487       .  S
C1396      C1397   1.380       .  A
C1397      C1398   1.333       .  A
C1397      H1400   1.082       .  S
C1398      C1399   1.379       .  A
C1398      H1401   1.084       .  S
O1402      C1413   1.298       .  A
O1402     Eu1438   2.469       .  S
O1403      C1414   1.298       .  A
O1403     Eu1437   2.473       .  S
O1404      C1415   1.299       .  A
O1404     Eu1410   2.527       .  S
O1405      C1416   1.299       .  A
O1405     Eu1410   2.526       .  S
O1406      C1416   1.298       .  A
O1406     Eu1440   2.522       .  S
O1407      C1415   1.299       .  A
O1407     Eu1439   2.528       .  S
O1408      C1414   1.274       .  A
O1408     Eu1410   2.396       .  S
O1409      C1413   1.277       .  A
O1409     Eu1902   2.421   1_554  S
Eu1410     O1901   2.410       .  S
Eu1410     O1912   2.363       .  S
Eu1410     O1904   2.354       .  S
Eu1410     O1411   2.358       .  S
Eu1410     O1418   2.374       .  S
O1411     Eu1440   2.358       .  S
O1411     Eu1437   2.331       .  S
O1412     Eu1902   2.351   1_554  S
O1412     Eu1438   2.329       .  S
O1412     Eu1931   2.364   1_554  S
C1416      N1470   1.484       .  S
H1417      O1418   0.967       .  S
O1418     Eu1439   2.375       .  S
O1418     Eu1437   2.343       .  S
H1419      O1420   0.966       .  S
O1420     Eu1902   2.370   1_554  S
O1420     Eu1438   2.345       .  S
O1420     Eu1932   2.369   1_554  S
O1421      C1444   1.300       .  A
O1421     Eu1437   2.477       .  S
O1422      C1445   1.298       .  A
O1422     Eu1438   2.461       .  S
O1423      C1446   1.277       .  A
O1423     Eu1439   2.416       .  S
O1424      C1447   1.276       .  A
O1424     Eu1440   2.410       .  S
O1425      C1448   1.276       .  A
O1425     Eu1932   2.409   1_554  S
O1426      C1449   1.274       .  A
O1426     Eu1931   2.401   1_554  S
O1427      C1450   1.300       .  A
O1427     Eu1441   2.526       .  S
O1428      C1451   1.298       .  A
O1428     Eu1441   2.522       .  S
O1429      C1450   1.298       .  A
O1429     Eu1439   2.521       .  S
O1430      C1451   1.299       .  A
O1430     Eu1440   2.526       .  S
O1431      C1446   1.299       .  A
O1431     Eu1437   2.469       .  S
O1432      C1449   1.300       .  A
O1432     Eu1438   2.480       .  S
O1433      C1448   1.296       .  A
O1433     Eu1438   2.457       .  S
O1434      C1447   1.296       .  A
O1434     Eu1437   2.454       .  S
O1435      C1444   1.277       .  A
O1435     Eu1441   2.411       .  S
O1436      C1445   1.273       .  A
O1436     Eu1933   2.396   1_554  S
Eu1437     O1455   2.345       .  S
Eu1437     O1443   2.328       .  S
Eu1438     O1442   2.337       .  S
Eu1438     O1453   2.347       .  S
Eu1439     O1918   2.403       .  S
Eu1439     O1904   2.355       .  S
Eu1439     O1945   2.378       .  S
Eu1439     O1443   2.351       .  S
Eu1440     O1917   2.412       .  S
Eu1440     O1912   2.372       .  S
Eu1440     O1934   2.361       .  S
Eu1440     O1455   2.372       .  S
Eu1441     O1928   2.408       .  S
Eu1441     O1934   2.362       .  S
Eu1441     O1945   2.370       .  S
Eu1441     O1455   2.369       .  S
Eu1441     O1443   2.356       .  S
O1442     Eu1932   2.355   1_554  S
O1442     Eu1933   2.353   1_554  S
C1450      N1463   1.484       .  S
C1451      N1456   1.485       .  S
H1452      O1453   0.968       .  S
O1453     Eu1931   2.378   1_554  S
O1453     Eu1933   2.386   1_554  S
H1454      O1455   0.967       .  S
N1456      C1460   1.385       .  A
N1456      C1457   1.384       .  A
C1457      C1458   1.379       .  A
C1458      C1459   1.333       .  A
C1458      H1461   1.080       .  S
C1459      C1460   1.380       .  A
C1459      H1462   1.083       .  S
N1463      C1467   1.383       .  A
N1463      C1464   1.382       .  A
C1464      C1465   1.378       .  A
C1465      C1466   1.339       .  A
C1465      H1468   1.081       .  S
C1466      C1467   1.379       .  A
C1466      H1469   1.083       .  S
N1470      C1474   1.383       .  A
N1470      C1471   1.384       .  A
C1471      C1472   1.380       .  A
C1472      C1473   1.331       .  A
C1472      H1475   1.083       .  S
C1473      C1474   1.378       .  A
C1473      H1476   1.081       .  S
N1477      C3449   1.385       .  A
N1477      C3446   1.384       .  A
N1477      C3463   1.484       .  S
C1478      N3445   1.383       .  A
C1478      C1479   1.378       .  A
C1478      C1570   1.476       .  S
C1479      C1480   1.337       .  A
C1479      H1482   1.081       .  S
C1480      C1481   1.378       .  A
C1480      H1483   1.081       .  S
C1481      N3445   1.384       .  A
C1481      C1816   1.478       .  S
O1484      C1495   1.298       .  A
O1484     Eu1520   2.519       .  S
O1485      C1496   1.300       .  A
O1485     Eu1519   2.532       .  S
O1486      C1497   1.276       .  A
O1486     Eu1492   2.413   1_455  S
O1487      C1498   1.276       .  A
O1487     Eu3460   2.412       .  S
O1488      C1498   1.295       .  A
O1488     Eu1522   2.453       .  S
O1489      C1497   1.296       .  A
O1489     Eu1521   2.455       .  S
O1490      C1496   1.298       .  A
O1490     Eu1492   2.523   1_455  S
O1491      C1495   1.297       .  A
O1491     Eu1492   2.515       .  S
Eu1492     O3455   2.412       .  S
Eu1492     O3470   2.378       .  S
Eu1492     O1494   2.358   1_655  S
Eu1492     O3461   2.357       .  S
Eu1492     O1500   2.366   1_655  S
O1493     Eu3460   2.353       .  S
O1493     Eu1522   2.337       .  S
O1493     Eu3487   2.352       .  S
O1494     Eu1520   2.359   1_455  S
O1494     Eu1521   2.329       .  S
C1495      N3445   1.481       .  S
C1496      N3513   1.487       .  S
C1497      C1614   1.476       .  S
C1498      C1621   1.474       .  S
H1499      O1500   0.967       .  S
O1500     Eu1521   2.334       .  S
O1500     Eu1519   2.363       .  S
H1501      O1502   0.967       .  S
O1502     Eu3460   2.367       .  S
O1502     Eu3488   2.367       .  S
O1502     Eu1522   2.341       .  S
O1503      C1526   1.297       .  A
O1503     Eu1519   2.518   1_655  S
O1504      C1527   1.298       .  A
O1504     Eu1520   2.524       .  S
O1505      C1528   1.298       .  A
O1505     Eu1521   2.467       .  S
O1506      C1529   1.296       .  A
O1506     Eu1522   2.453       .  S
O1507      C1530   1.298       .  A
O1507     Eu1522   2.467       .  S
O1508      C1531   1.297       .  A
O1508     Eu1521   2.462       .  S
O1509      C1532   1.275       .  A
O1509     Eu1523   2.403   1_455  S
O1510      C1533   1.275       .  A
O1510     Eu3491   2.405       .  S
O1511      C1532   1.295       .  A
O1511     Eu1521   2.449       .  S
O1512      C1533   1.298       .  A
O1512     Eu1522   2.469       .  S
O1513      C1528   1.277       .  A
O1513     Eu1519   2.418       .  S
O1514      C1531   1.276       .  A
O1514     Eu1520   2.409   1_455  S
O1515      C1530   1.275       .  A
O1515     Eu3488   2.405       .  S
O1516      C1529   1.276       .  A
O1516     Eu3487   2.409       .  S
O1517      C1526   1.299       .  A
O1517     Eu1523   2.526       .  S
O1518      C1527   1.300       .  A
O1518     Eu1523   2.531       .  S
Eu1519     O3484   2.406   1_455  S
Eu1519     O3461   2.359   1_455  S
Eu1519     O3505   2.380   1_455  S
Eu1519     O1525   2.357       .  S
Eu1520     O3483   2.411       .  S
Eu1520     O3470   2.370       .  S
Eu1520     O3492   2.351       .  S
Eu1520     O1535   2.374   1_655  S
Eu1521     O1535   2.345       .  S
Eu1521     O1525   2.330       .  S
Eu1522     O1524   2.327       .  S
Eu1522     O1537   2.343       .  S
Eu1523     O3478   2.410       .  S
Eu1523     O3492   2.351       .  S
Eu1523     O1535   2.375   1_655  S
Eu1523     O3505   2.374       .  S
Eu1523     O1525   2.359   1_655  S
O1524     Eu3488   2.356       .  S
O1524     Eu3491   2.368       .  S
C1526      N1538   1.484       .  S
C1527      N1552   1.489       .  S
C1528      C1874   1.483       .  S
C1529      C1881   1.474       .  S
C1530      C1863   1.474       .  S
C1531      C1870   1.477       .  S
C1532      C1635   1.470       .  S
C1533      C1631   1.479       .  S
H1534      O1535   0.967       .  S
H1536      O1537   0.966       .  S
O1537     Eu3487   2.374       .  S
O1537     Eu3491   2.371       .  S
N1538      C1542   1.385       .  A
N1538      C1539   1.386       .  A
C1539      C1540   1.380       .  A
C1539      C1847   1.475       .  S
C1540      C1541   1.332       .  A
C1540      H1543   1.083       .  S
C1541      C1542   1.380       .  A
C1541      H1544   1.083       .  S
C1542      C1601   1.475       .  S
N1545      C3517   1.383       .  A
N1545      C3514   1.387       .  A
N1545      C3464   1.488       .  S
C1546      N3513   1.384       .  A
C1546      C1547   1.379       .  A
C1546      C1571   1.472       .  S
C1547      C1548   1.338       .  A
C1547      H1550   1.083       .  S
C1548      C1549   1.380       .  A
C1548      H1551   1.084       .  S
C1549      N3513   1.380       .  A
C1549      C1848   1.469       .  S
N1552      C1556   1.386       .  A
N1552      C1553   1.387       .  A
C1553      C1554   1.381       .  A
C1553      C1817   1.473       .  S
C1554      C1555   1.327       .  A
C1554      H1557   1.084       .  S
C1555      C1556   1.381       .  A
C1555      H1558   1.083       .  S
C1556      C1602   1.472       .  S
O1559      C1570   1.298       .  A
O1560      C1571   1.300       .  A
O1561      C1572   1.298       .  A
O1561     Eu3535   2.521       .  S
O1562      C1573   1.302       .  A
O1562     Eu1567   2.541   1_455  S
O1563      C1573   1.300       .  A
O1564      C1572   1.298       .  A
O1565      C1571   1.274       .  A
O1565     Eu1567   2.398   1_455  S
O1566      C1570   1.276       .  A
O1566     Eu1567   2.408       .  S
Eu1567     O3529   2.528       .  S
Eu1567     O1577   2.371   1_655  S
Eu1567     O3537   2.353       .  S
Eu1567     O1568   2.355   1_655  S
Eu1567     O3543   2.385       .  S
O1569     Eu3535   2.359       .  S
O1569     Eu2579   2.338       .  S
C1572      N1620   1.483       .  S
C1573      N1613   1.491       .  S
H1574      O1575   0.966       .  S
O1575     Eu3535   2.378       .  S
O1575     Eu2578   2.345       .  S
H1576      O1577   0.967       .  S
O1578      C1601   1.295       .  A
O1578     Eu1594   2.452       .  S
O1579      C1602   1.294       .  A
O1579     Eu1595   2.446       .  S
O1580      C1603   1.273       .  A
O1580     Eu1596   2.395       .  S
O1581      C1604   1.277       .  A
O1581     Eu1597   2.418       .  S
O1582      C1605   1.275       .  A
O1582     Eu1597   2.406       .  S
O1583      C1606   1.276       .  A
O1583     Eu1596   2.409   1_545  S
O1584      C1607   1.299       .  A
O1584     Eu3566   2.522       .  S
O1585      C1608   1.300       .  A
O1585     Eu1598   2.529   1_455  S
O1586      C1607   1.299       .  A
O1586     Eu1596   2.526       .  S
O1587      C1608   1.297       .  A
O1587     Eu1597   2.516       .  S
O1588      C1603   1.298       .  A
O1588     Eu3562   2.466       .  S
O1589      C1606   1.297   1_565  A
O1589     Eu3563   2.461       .  S
O1590      C1605   1.298       .  A
O1590     Eu1595   2.464   1_455  S
O1591      C1604   1.296       .  A
O1591     Eu1594   2.455   1_455  S
O1592      C1601   1.275       .  A
O1592     Eu1598   2.409       .  S
O1593      C1602   1.274       .  A
O1593     Eu1598   2.406       .  S
Eu1594     O3556   2.459       .  S
Eu1594     O2559   2.331   1_565  S
Eu1594     O1612   2.332   1_655  S
Eu1594     O3568   2.329       .  S
Eu1595     O3557   2.459   1_565  S
Eu1595     O2553   2.329   1_565  S
Eu1595     O1599   2.333   1_655  S
Eu1595     O3578   2.339       .  S
Eu1596     O1610   2.364       .  S
Eu1596     O1600   2.361       .  S
Eu1597     O1599   2.368       .  S
Eu1597     O1612   2.370       .  S
Eu1598     O3552   2.518       .  S
Eu1598     O1599   2.365   1_655  S
Eu1598     O3578   2.373       .  S
Eu1598     O1612   2.363   1_655  S
Eu1598     O3568   2.362       .  S
O1600     Eu3562   2.324       .  S
O1600     Eu3566   2.362       .  S
C1603      C1710   1.470       .  S
C1604      C1706   1.481   1_565  S
C1605      C1720   1.475       .  S
C1606      C1642   1.476       .  S
C1607      N1627   1.485       .  S
C1608      N1634   1.485       .  S
H1609      O1610   0.965       .  S
O1610     Eu3563   2.332       .  S
O1610     Eu3566   2.366       .  S
H1611      O1612   0.966       .  S
N1613      C1617   1.389       .  A
N1613      C1614   1.387       .  A
C1614      C1615   1.381       .  A
C1615      C1616   1.330       .  A
C1615      H1618   1.083       .  S
C1616      C1617   1.380       .  A
C1616      H1619   1.083       .  S
C1617      C1659   1.475       .  S
N1620      C1624   1.385       .  A
N1620      C1621   1.383       .  A
C1621      C1622   1.380       .  A
C1622      C1623   1.333       .  A
C1622      H1625   1.082       .  S
C1623      C1624   1.379       .  A
C1623      H1626   1.082       .  S
C1624      C1691   1.475       .  S
N1627      C1631   1.387       .  A
N1627      C1628   1.386       .  A
C1628      C1629   1.379       .  A
C1628      C1690   1.479       .  S
C1629      C1630   1.334       .  A
C1629      H1632   1.082       .  S
C1630      C1631   1.379       .  A
C1630      H1633   1.083       .  S
N1634      C1638   1.384       .  A
N1634      C1635   1.383       .  A
C1635      C1636   1.380       .  A
C1636      C1637   1.333       .  A
C1636      H1639   1.083       .  S
C1637      C1638   1.379       .  A
C1637      H1640   1.081       .  S
C1638      C1660   1.474       .  S
N1641      C1645   1.384       .  A
N1641      C1642   1.384       .  A
N1641      C1696   1.485       .  S
C1642      C1643   1.380       .  A
C1643      C1644   1.335       .  A
C1643      H1646   1.082       .  S
C1644      C1645   1.379       .  A
C1644      H1647   1.083       .  S
C1645      C1734   1.475       .  S
O1648      C1659   1.298       .  A
O1648     Eu1684   2.465       .  S
O1649      C1660   1.298       .  A
O1649     Eu1683   2.469       .  S
O1650      C1661   1.300       .  A
O1650     Eu1656   2.535       .  S
O1651      C1662   1.299       .  A
O1651     Eu1656   2.528       .  S
O1652      C1662   1.299       .  A
O1652     Eu1686   2.527       .  S
O1653      C1661   1.299       .  A
O1653     Eu1685   2.530       .  S
O1654      C1660   1.275       .  A
O1654     Eu1656   2.403       .  S
O1655      C1659   1.274       .  A
Eu1656     O1657   2.353       .  S
Eu1656     O1664   2.379       .  S
O1657     Eu1686   2.353       .  S
O1657     Eu1683   2.325       .  S
O1658     Eu1684   2.333       .  S
C1661      N1716   1.489       .  S
C1662      N1702   1.486   1_565  S
H1663      O1664   0.966       .  S
O1664     Eu1685   2.376       .  S
O1664     Eu1683   2.348       .  S
H1665      O1666   0.966       .  S
O1666     Eu1684   2.340       .  S
O1667      C1690   1.299       .  A
O1667     Eu1683   2.472       .  S
O1668      C1691   1.297       .  A
O1668     Eu1684   2.463       .  S
O1669      C1692   1.275       .  A
O1669     Eu1685   2.402       .  S
O1670      C1693   1.275       .  A
O1670     Eu1686   2.404       .  S
O1671      C1694   1.275       .  A
O1672      C1695   1.276       .  A
O1673      C1696   1.298   1_565  A
O1673     Eu1687   2.520       .  S
O1674      C1697   1.299       .  A
O1674     Eu1687   2.525       .  S
O1675      C1696   1.300       .  A
O1675     Eu1685   2.531   1_545  S
O1676      C1697   1.299       .  A
O1676     Eu1686   2.525       .  S
O1677      C1692   1.299       .  A
O1677     Eu1683   2.473       .  S
O1678      C1695   1.297       .  A
O1678     Eu1684   2.461       .  S
O1679      C1694   1.297       .  A
O1679     Eu1684   2.466       .  S
O1680      C1693   1.299       .  A
O1680     Eu1683   2.472       .  S
O1681      C1690   1.276       .  A
O1681     Eu1687   2.412       .  S
O1682      C1691   1.275       .  A
Eu1683     O1701   2.342       .  S
Eu1683     O1689   2.331       .  S
Eu1684     O1688   2.331       .  S
Eu1684     O1699   2.341       .  S
Eu1685     O1689   2.356       .  S
Eu1686     O1701   2.372       .  S
Eu1687     O1701   2.372       .  S
Eu1687     O1689   2.361       .  S
C1692      C1788   1.474       .  S
C1693      C1795   1.477       .  S
C1694      C1799   1.476       .  S
C1695      C1781   1.476       .  S
C1697      N1709   1.486       .  S
H1698      O1699   0.967       .  S
H1700      O1701   0.967       .  S
N1702      C1706   1.388       .  A
N1702      C1703   1.389       .  A
C1703      C1704   1.379       .  A
C1703      C1765   1.480       .  S
C1704      C1705   1.331       .  A
C1704      H1707   1.083       .  S
C1705      C1706   1.381       .  A
C1705      H1708   1.083       .  S
N1709      C1713   1.383       .  A
N1709      C1710   1.385       .  A
C1710      C1711   1.379       .  A
C1711      C1712   1.334       .  A
C1711      H1714   1.083       .  S
C1712      C1713   1.379       .  A
C1712      H1715   1.081       .  S
C1713      C1766   1.473       .  S
N1716      C1720   1.388       .  A
N1716      C1717   1.386       .  A
C1717      C1718   1.381       .  A
C1717      C1735   1.476       .  S
C1718      C1719   1.331       .  A
C1718      H1721   1.082       .  S
C1719      C1720   1.379       .  A
C1719      H1722   1.083       .  S
O1723      C1734   1.298       .  A
O1724      C1735   1.296       .  A
O1725      C1736   1.299       .  A
O1726      C1737   1.298       .  A
O1726     Eu1731   2.520       .  S
O1727      C1737   1.300       .  A
O1728      C1736   1.299       .  A
O1729      C1735   1.276       .  A
O1729     Eu1731   2.412       .  S
O1730      C1734   1.275       .  A
O1730     Eu1731   2.408   1_545  S
Eu1731     O1741   2.370       .  S
Eu1731     O1732   2.359       .  S
C1736      N1777   1.488       .  S
C1737      N1784   1.484       .  S
H1738      O1739   0.967       .  S
H1740      O1741   0.966       .  S
O1742      C1765   1.298   1_565  A
O1742     Eu1758   2.465       .  S
O1743      C1766   1.296       .  A
O1743     Eu1759   2.461       .  S
O1744      C1767   1.275       .  A
O1744     Eu1760   2.407   1_554  S
O1745      C1768   1.277       .  A
O1745     Eu1761   2.416   1_554  S
O1746      C1769   1.276       .  A
O1746     Eu1761   2.410       .  S
O1747      C1770   1.275       .  A
O1747     Eu1760   2.405       .  S
O1748      C1771   1.299       .  A
O1749      C1772   1.297       .  A
O1749     Eu1762   2.514       .  S
O1750      C1771   1.299       .  A
O1750     Eu1760   2.525       .  S
O1751      C1772   1.299       .  A
O1751     Eu1761   2.523       .  S
O1752      C1767   1.297       .  A
O1753      C1770   1.298       .  A
O1754      C1769   1.297       .  A
O1754     Eu1759   2.460       .  S
O1755      C1768   1.297   1_556  A
O1755     Eu1758   2.462       .  S
O1756      C1765   1.275       .  A
O1756     Eu1762   2.411   1_545  S
O1757      C1766   1.275       .  A
O1757     Eu1762   2.403       .  S
Eu1758     O1776   2.332       .  S
Eu1759     O1763   2.337       .  S
Eu1760     O1774   2.367       .  S
Eu1760     O1764   2.368       .  S
Eu1761     O1763   2.355       .  S
Eu1761     O1776   2.378       .  S
Eu1762     O1763   2.367       .  S
Eu1762     O1776   2.368       .  S
C1767      C1888   1.472       .  S
C1768      C1956   1.480       .  S
C1769      C1949   1.473       .  S
C1770      C1966   1.475       .  S
C1771      N1798   1.486       .  S
C1772      N1791   1.482       .  S
H1773      O1774   0.965       .  S
H1775      O1776   0.967       .  S
N1777      C1781   1.387       .  A
N1777      C1778   1.386       .  A
C1778      C1779   1.380       .  A
C1778      C1905   1.475       .  S
C1779      C1780   1.332       .  A
C1779      H1782   1.083       .  S
C1780      C1781   1.380       .  A
C1780      H1783   1.083       .  S
N1784      C1788   1.384       .  A
N1784      C1785   1.383       .  A
C1785      C1786   1.379       .  A
C1785      C1937   1.472       .  S
C1786      C1787   1.336       .  A
C1786      H1789   1.083       .  S
C1787      C1788   1.378       .  A
C1787      H1790   1.082       .  S
N1791      C1795   1.385       .  A
N1791      C1792   1.384       .  A
C1792      C1793   1.379       .  A
C1792      C1936   1.479       .  S
C1793      C1794   1.337       .  A
C1793      H1796   1.083       .  S
C1794      C1795   1.378       .  A
C1794      H1797   1.081       .  S
N1798      C1802   1.386       .  A
N1798      C1799   1.385       .  A
C1799      C1800   1.379       .  A
C1800      C1801   1.333       .  A
C1800      H1803   1.082       .  S
C1801      C1802   1.379       .  A
C1801      H1804   1.083       .  S
C1802      C1906   1.475       .  S
O1805      C1816   1.299       .  A
O1806      C1817   1.294       .  A
O1807      C1818   1.297       .  A
O1807     Eu1813   2.517   1_455  S
O1808      C1819   1.297       .  A
O1808     Eu3781   2.516       .  S
O1809      C1819   1.300       .  A
O1810      C1818   1.298       .  A
O1811      C1817   1.274       .  A
O1811     Eu1813   2.405       .  S
O1812      C1816   1.276       .  A
O1812     Eu1813   2.412       .  S
Eu1813     O3776   2.523       .  S
Eu1813     O3791   2.351       .  S
Eu1813     O1815   2.368   1_655  S
Eu1813     O3782   2.364       .  S
Eu1813     O1821   2.359   1_655  S
O1814     Eu3781   2.366       .  S
O1814     Eu3316   2.338       .  S
C1818      N1866   1.482       .  S
C1819      N1859   1.484       .  S
H1820      O1821   0.966       .  S
H1822      O1823   0.966       .  S
O1823     Eu3781   2.354       .  S
O1823     Eu3317   2.336       .  S
O1824      C1847   1.297   1_455  A
O1824     Eu1840   2.461       .  S
O1825      C1848   1.298       .  A
O1825     Eu1841   2.466       .  S
O1826      C1849   1.275       .  A
O1826     Eu1842   2.410   1_554  S
O1827      C1850   1.276       .  A
O1827     Eu1843   2.414       .  S
O1828      C1851   1.274       .  A
O1828     Eu1843   2.400       .  S
O1829      C1852   1.275   1_556  A
O1829     Eu1842   2.405       .  S
O1830      C1853   1.297       .  A
O1830     Eu1844   2.519       .  S
O1831      C1854   1.298       .  A
O1831     Eu3812   2.522       .  S
O1832      C1853   1.301       .  A
O1832     Eu1842   2.537       .  S
O1833      C1854   1.299       .  A
O1833     Eu1843   2.527       .  S
O1834      C1849   1.296   1_556  A
O1834     Eu1840   2.456       .  S
O1835      C1852   1.296   1_556  A
O1835     Eu1841   2.460       .  S
O1836      C1851   1.296       .  A
O1836     Eu3809   2.458       .  S
O1837      C1850   1.297       .  A
O1837     Eu3808   2.461       .  S
O1838      C1847   1.276       .  A
O1838     Eu1844   2.409   1_655  S
O1839      C1848   1.276       .  A
O1839     Eu1844   2.405       .  S
Eu1840     O3805   2.459   1_455  S
Eu1840     O3290   2.330   1_456  S
Eu1840     O3826   2.342   1_455  S
Eu1840     O1846   2.332       .  S
Eu1841     O3804   2.476   1_455  S
Eu1841     O3299   2.345   1_456  S
Eu1841     O3813   2.334   1_455  S
Eu1841     O1856   2.346       .  S
Eu1842     O1856   2.357       .  S
Eu1842     O1846   2.365       .  S
Eu1843     O1845   2.367       .  S
Eu1843     O1858   2.358       .  S
Eu1844     O3799   2.544   1_455  S
Eu1844     O3813   2.358   1_455  S
Eu1844     O1856   2.369       .  S
Eu1844     O3826   2.360   1_455  S
Eu1844     O1846   2.371       .  S
O1845     Eu3809   2.333       .  S
O1845     Eu3812   2.361       .  S
C1849      C1959   1.476       .  S
C1850      C1952   1.477       .  S
C1851      C1963   1.471       .  S
C1852      C1891   1.473       .  S
C1853      N1873   1.486       .  S
C1854      N1880   1.485       .  S
H1855      O1856   0.966       .  S
H1857      O1858   0.965       .  S
O1858     Eu3808   2.335       .  S
O1858     Eu3812   2.360       .  S
N1859      C1863   1.384       .  A
N1859      C1860   1.383       .  A
C1860      C1861   1.380       .  A
C1860      C1940   1.475       .  S
C1861      C1862   1.336       .  A
C1861      H1864   1.083       .  S
C1862      C1863   1.379       .  A
C1862      H1865   1.083       .  S
N1866      C1870   1.383       .  A
N1866      C1867   1.384       .  A
C1867      C1868   1.379       .  A
C1867      C1941   1.475       .  S
C1868      C1869   1.336       .  A
C1868      H1871   1.082       .  S
C1869      C1870   1.379       .  A
C1869      H1872   1.083       .  S
N1873      C1877   1.387       .  A
N1873      C1874   1.390       .  A
C1874      C1875   1.380       .  A
C1875      C1876   1.331       .  A
C1875      H1878   1.083       .  S
C1876      C1877   1.382       .  A
C1876      H1879   1.083       .  S
C1877      C1938   1.481       .  S
N1880      C1884   1.385       .  A
N1880      C1881   1.385       .  A
C1881      C1882   1.379       .  A
C1882      C1883   1.332       .  A
C1882      H1885   1.082       .  S
C1883      C1884   1.380       .  A
C1883      H1886   1.083       .  S
C1884      C1939   1.476       .  S
N1887      C1891   1.384       .  A
N1887      C1888   1.384       .  A
N1887      C1907   1.488       .  S
C1888      C1889   1.380       .  A
C1889      C1890   1.333       .  A
C1889      H1892   1.084       .  S
C1890      C1891   1.380       .  A
C1890      H1893   1.084       .  S
O1894      C1905   1.296       .  A
O1894     Eu1930   2.456       .  S
O1895      C1906   1.298       .  A
O1895     Eu1929   2.469       .  S
O1896      C1907   1.299       .  A
O1896     Eu1902   2.527   1_554  S
O1897      C1908   1.295       .  A
O1897     Eu1902   2.508       .  S
O1898      C1908   1.301       .  A
O1898     Eu1932   2.532       .  S
O1899      C1907   1.299   1_556  A
O1899     Eu1931   2.526       .  S
O1900      C1906   1.275       .  A
O1900     Eu1902   2.403       .  S
O1901      C1905   1.275       .  A
Eu1902     O1903   2.363       .  S
Eu1902     O1910   2.373       .  S
O1903     Eu1932   2.351       .  S
O1903     Eu1929   2.324       .  S
O1904     Eu1930   2.331       .  S
C1908      N1962   1.484       .  S
H1909      O1910   0.967       .  S
O1910     Eu1931   2.369       .  S
O1910     Eu1929   2.349       .  S
H1911      O1912   0.966       .  S
O1912     Eu1930   2.338       .  S
O1913      C1936   1.298       .  A
O1913     Eu1929   2.474       .  S
O1914      C1937   1.296       .  A
O1914     Eu1930   2.456       .  S
O1915      C1938   1.278       .  A
O1915     Eu1931   2.426       .  S
O1916      C1939   1.275       .  A
O1916     Eu1932   2.409       .  S
O1917      C1940   1.276       .  A
O1918      C1941   1.275       .  A
O1919      C1942   1.298   1_556  A
O1919     Eu1933   2.522       .  S
O1920      C1943   1.302       .  A
O1920     Eu1933   2.540       .  S
O1921      C1942   1.300   1_556  A
O1921     Eu1931   2.529       .  S
O1922      C1943   1.297       .  A
O1922     Eu1932   2.519       .  S
O1923      C1938   1.294       .  A
O1923     Eu1929   2.444       .  S
O1924      C1941   1.298       .  A
O1924     Eu1930   2.467       .  S
O1925      C1940   1.297       .  A
O1925     Eu1930   2.464       .  S
O1926      C1939   1.296       .  A
O1926     Eu1929   2.459       .  S
O1927      C1936   1.277       .  A
O1927     Eu1933   2.414       .  S
O1928      C1937   1.276       .  A
Eu1929     O1947   2.341       .  S
Eu1929     O1935   2.326       .  S
Eu1930     O1934   2.339       .  S
Eu1930     O1945   2.337       .  S
Eu1931     O1935   2.356       .  S
Eu1932     O1947   2.373       .  S
Eu1933     O1947   2.371       .  S
Eu1933     O1935   2.356       .  S
C1942      N1955   1.486       .  S
C1943      N1948   1.487       .  S
H1944      O1945   0.967       .  S
H1946      O1947   0.967       .  S
N1948      C1952   1.386       .  A
N1948      C1949   1.385       .  A
C1949      C1950   1.379       .  A
C1950      C1951   1.334       .  A
C1950      H1953   1.081       .  S
C1951      C1952   1.380       .  A
C1951      H1954   1.084       .  S
N1955      C1959   1.386       .  A
N1955      C1956   1.387       .  A
C1956      C1957   1.380       .  A
C1957      C1958   1.331       .  A
C1957      H1960   1.083       .  S
C1958      C1959   1.380       .  A
C1958      H1961   1.083       .  S
N1962      C1966   1.384       .  A
N1962      C1963   1.382       .  A
C1963      C1964   1.380       .  A
C1964      C1965   1.335       .  A
C1964      H1967   1.083       .  S
C1965      C1966   1.379       .  A
C1965      H1968   1.083       .  S
C1970      C1971   1.380       .  A
C1970      C2062   1.476       .  S
C1971      C1972   1.332       .  A
C1971      H1974   1.082       .  S
C1972      C1973   1.380       .  A
C1972      H1975   1.083       .  S
C1973      C2308   1.478       .  S
O1976      C1987   1.298       .  A
O1976     Eu2012   2.521       .  S
O1977      C1988   1.297       .  A
O1977     Eu2011   2.516       .  S
O1978      C1989   1.275       .  A
O1978     Eu1984   2.406       .  S
O1979      C1990   1.277       .  A
O1980      C1990   1.297       .  A
O1980     Eu2014   2.464       .  S
O1981      C1989   1.296       .  A
O1981     Eu2013   2.457       .  S
O1982      C1988   1.297       .  A
O1982     Eu1984   2.517       .  S
O1983      C1987   1.301       .  A
O1983     Eu1984   2.536       .  S
Eu1984     O1986   2.354       .  S
Eu1984     O1992   2.373       .  S
O1985     Eu2014   2.323       .  S
O1986     Eu2012   2.353       .  S
O1986     Eu2013   2.328       .  S
C1989      C2106   1.474       .  S
C1990      C2113   1.475       .  S
H1991      O1992   0.967       .  S
O1992     Eu2013   2.337       .  S
O1992     Eu2011   2.369       .  S
H1993      O1994   0.967       .  S
O1994     Eu2014   2.340       .  S
O1995      C2018   1.298       .  A
O1995     Eu2011   2.523       .  S
O1996      C2019   1.299       .  A
O1996     Eu2012   2.528       .  S
O1997      C2020   1.295       .  A
O1997     Eu2013   2.454       .  S
O1998      C2021   1.294       .  A
O1998     Eu2014   2.448       .  S
O1999      C2022   1.297       .  A
O1999     Eu2014   2.462       .  S
O2000      C2023   1.295       .  A
O2000     Eu2013   2.450       .  S
O2001      C2024   1.275       .  A
O2001     Eu2015   2.411       .  S
O2002      C2025   1.275       .  A
O2003      C2024   1.297       .  A
O2003     Eu2013   2.463       .  S
O2004      C2025   1.296       .  A
O2004     Eu2014   2.454       .  S
O2005      C2020   1.274       .  A
O2005     Eu2011   2.403       .  S
O2006      C2023   1.275       .  A
O2006     Eu2012   2.409       .  S
O2007      C2022   1.274       .  A
O2008      C2021   1.276       .  A
O2009      C2018   1.300       .  A
O2009     Eu2015   2.530       .  S
O2010      C2019   1.298       .  A
O2010     Eu2015   2.522       .  S
Eu2011     O2017   2.360       .  S
Eu2012     O2027   2.368       .  S
Eu2013     O2027   2.342       .  S
Eu2013     O2017   2.324       .  S
Eu2014     O2016   2.323       .  S
Eu2014     O2029   2.350       .  S
Eu2015     O2027   2.369       .  S
Eu2015     O2017   2.353       .  S
C2018      N2030   1.487       .  S
C2019      N2044   1.485       .  S
C2020      C2366   1.474       .  S
C2021      C2373   1.475       .  S
C2022      C2355   1.474       .  S
C2023      C2362   1.475       .  S
C2024      C2127   1.476       .  S
C2025      C2123   1.473       .  S
H2026      O2027   0.966       .  S
H2028      O2029   0.966       .  S
N2030      C2034   1.382       .  A
N2030      C2031   1.384       .  A
C2031      C2032   1.380       .  A
C2031      C2339   1.473       .  S
C2032      C2033   1.338       .  A
C2032      H2035   1.083       .  S
C2033      C2034   1.380       .  A
C2033      H2036   1.084       .  S
C2034      C2093   1.473       .  S
C2038      C2039   1.378       .  A
C2038      C2063   1.478       .  S
C2039      C2040   1.334       .  A
C2039      H2042   1.081       .  S
C2040      C2041   1.380       .  A
C2040      H2043   1.083       .  S
C2041      C2340   1.478       .  S
N2044      C2048   1.386       .  A
N2044      C2045   1.387       .  A
C2045      C2046   1.380       .  A
C2045      C2309   1.479       .  S
C2046      C2047   1.336       .  A
C2046      H2049   1.083       .  S
C2047      C2048   1.380       .  A
C2047      H2050   1.083       .  S
C2048      C2094   1.481       .  S
O2051      C2062   1.296       .  A
O2051     Eu3071   2.457   1_545  S
O2052      C2063   1.299       .  A
O2052     Eu3070   2.473   1_545  S
O2053      C2064   1.299       .  A
O2054      C2065   1.299       .  A
O2054     Eu2059   2.528       .  S
O2055      C2065   1.298       .  A
O2055     Eu3073   2.524   1_545  S
O2056      C2064   1.299       .  A
O2056     Eu3072   2.527   1_545  S
O2057      C2063   1.276       .  A
O2057     Eu2059   2.411       .  S
O2058      C2062   1.276       .  A
O2058     Eu2059   2.413       .  S
Eu2059     O2069   2.376       .  S
Eu2059     O2060   2.353       .  S
O2060     Eu3073   2.360   1_545  S
O2060     Eu3070   2.336   1_545  S
O2061     Eu3072   2.359   1_545  S
C2064      N2112   1.485       .  S
C2065      N2105   1.486       .  S
H2066      O2067   0.967       .  S
O2067     Eu3072   2.366   1_545  S
H2068      O2069   0.967       .  S
O2069     Eu3071   2.342   1_545  S
O2069     Eu3073   2.369   1_545  S
O2070      C2093   1.298       .  A
O2070     Eu2086   2.469       .  S
O2071      C2094   1.297       .  A
O2071     Eu2087   2.464       .  S
O2072      C2095   1.274       .  A
O2072     Eu2088   2.401       .  S
O2073      C2096   1.277       .  A
O2073     Eu2089   2.420       .  S
O2074      C2097   1.274       .  A
O2074     Eu2089   2.398       .  S
O2075      C2098   1.277       .  A
O2075     Eu2088   2.415       .  S
O2076      C2099   1.302       .  A
O2077      C2100   1.299       .  A
O2077     Eu2090   2.527       .  S
O2078      C2099   1.298       .  A
O2078     Eu2088   2.521       .  S
O2079      C2100   1.299       .  A
O2079     Eu2089   2.526       .  S
O2080      C2095   1.301       .  A
O2081      C2098   1.296       .  A
O2082      C2097   1.296       .  A
O2082     Eu2087   2.459       .  S
O2083      C2096   1.297       .  A
O2083     Eu2086   2.456       .  S
O2084      C2093   1.276       .  A
O2084     Eu2090   2.405       .  S
O2085      C2094   1.278       .  A
O2085     Eu2090   2.423       .  S
Eu2086     O3036   2.462       .  S
Eu2086     O3044   2.334       .  S
Eu2086     O2104   2.343       .  S
Eu2087     O3035   2.453       .  S
Eu2087     O3053   2.338       .  S
Eu2087     O2091   2.329       .  S
Eu2088     O3040   2.528       .  S
Eu2088     O3045   2.361       .  S
Eu2088     O3051   2.366       .  S
Eu2088     O2102   2.359       .  S
Eu2088     O2092   2.369       .  S
Eu2089     O3039   2.525       .  S
Eu2089     O3044   2.351       .  S
Eu2089     O3053   2.366       .  S
Eu2089     O2091   2.370       .  S
Eu2089     O2104   2.357       .  S
Eu2090     O2091   2.361       .  S
Eu2090     O2104   2.375       .  S
C2095      C2202   1.479       .  S
C2096      C2198   1.476       .  S
C2097      C2212   1.473       .  S
C2098      C2134   1.478       .  S
C2099      N2119   1.488       .  S
C2100      N2126   1.487       .  S
H2101      O2102   0.965       .  S
H2103      O2104   0.965       .  S
N2105      C2109   1.385       .  A
N2105      C2106   1.384       .  A
C2106      C2107   1.380       .  A
C2107      C2108   1.332       .  A
C2107      H2110   1.083       .  S
C2108      C2109   1.379       .  A
C2108      H2111   1.082       .  S
C2109      C2151   1.472       .  S
N2112      C2116   1.385       .  A
N2112      C2113   1.383       .  A
C2113      C2114   1.379       .  A
C2114      C2115   1.337       .  A
C2114      H2117   1.082       .  S
C2115      C2116   1.379       .  A
C2115      H2118   1.081       .  S
C2116      C2183   1.476       .  S
N2119      C2123   1.386       .  A
N2119      C2120   1.387       .  A
C2120      C2121   1.379       .  A
C2120      C2182   1.474       .  S
C2121      C2122   1.329       .  A
C2121      H2124   1.083       .  S
C2122      C2123   1.380       .  A
C2122      H2125   1.083       .  S
N2126      C2130   1.386       .  A
N2126      C2127   1.387       .  A
C2127      C2128   1.380       .  A
C2128      C2129   1.332       .  A
C2128      H2131   1.083       .  S
C2129      C2130   1.380       .  A
C2129      H2132   1.083       .  S
C2130      C2152   1.476       .  S
N2133      C2137   1.386       .  A
N2133      C2134   1.386       .  A
N2133      C2188   1.487       .  S
C2134      C2135   1.381       .  A
C2135      C2136   1.333       .  A
C2135      H2138   1.082       .  S
C2136      C2137   1.379       .  A
C2136      H2139   1.083       .  S
C2137      C2226   1.474       .  S
O2140      C2151   1.297       .  A
O2140     Eu2176   2.461       .  S
O2141      C2152   1.296       .  A
O2141     Eu2175   2.458       .  S
O2142      C2153   1.297       .  A
O2142     Eu2148   2.520       .  S
O2143      C2154   1.300       .  A
O2143     Eu2148   2.531       .  S
O2144      C2154   1.299       .  A
O2144     Eu2178   2.528       .  S
O2145      C2153   1.300       .  A
O2145     Eu2177   2.530       .  S
O2146      C2152   1.275       .  A
O2146     Eu2148   2.410       .  S
O2147      C2151   1.274       .  A
O2147     Eu3132   2.401   1_545  S
Eu2148     O3131   2.396       .  S
Eu2148     O3142   2.372       .  S
Eu2148     O3134   2.363       .  S
Eu2148     O2149   2.357       .  S
Eu2148     O2156   2.367       .  S
O2149     Eu2178   2.361       .  S
O2149     Eu2175   2.331       .  S
O2150     Eu3132   2.359   1_545  S
O2150     Eu2176   2.334       .  S
O2150     Eu3161   2.359   1_545  S
C2153      N2208   1.486       .  S
C2154      N2194   1.486       .  S
H2155      O2156   0.965       .  S
O2156     Eu2177   2.366       .  S
O2156     Eu2175   2.342       .  S
H2157      O2158   0.966       .  S
O2158     Eu3132   2.371   1_545  S
O2158     Eu2176   2.338       .  S
O2158     Eu3162   2.368   1_545  S
O2159      C2182   1.297       .  A
O2159     Eu2175   2.464       .  S
O2160      C2183   1.299       .  A
O2160     Eu2176   2.470       .  S
O2161      C2184   1.276       .  A
O2161     Eu2177   2.411       .  S
O2162      C2185   1.276       .  A
O2162     Eu2178   2.406       .  S
O2163      C2186   1.275       .  A
O2163     Eu3162   2.404   1_545  S
O2164      C2187   1.274       .  A
O2164     Eu3161   2.400   1_545  S
O2165      C2188   1.299       .  A
O2165     Eu2179   2.527       .  S
O2166      C2189   1.298       .  A
O2166     Eu2179   2.521       .  S
O2167      C2188   1.300       .  A
O2167     Eu2177   2.528       .  S
O2168      C2189   1.302       .  A
O2168     Eu2178   2.540       .  S
O2169      C2184   1.297       .  A
O2169     Eu2175   2.461       .  S
O2170      C2187   1.295       .  A
O2170     Eu2176   2.447       .  S
O2171      C2186   1.296       .  A
O2171     Eu2176   2.460       .  S
O2172      C2185   1.299       .  A
O2172     Eu2175   2.475       .  S
O2173      C2182   1.274       .  A
O2173     Eu2179   2.399       .  S
O2174      C2183   1.276       .  A
O2174     Eu3163   2.409   1_545  S
Eu2175     O2193   2.334       .  S
Eu2175     O2181   2.337       .  S
Eu2176     O2180   2.323       .  S
Eu2176     O2191   2.341       .  S
Eu2177     O3148   2.421       .  S
Eu2177     O3134   2.358       .  S
Eu2177     O3175   2.369       .  S
Eu2177     O2181   2.364       .  S
Eu2178     O3147   2.410       .  S
Eu2178     O3142   2.373       .  S
Eu2178     O3164   2.354       .  S
Eu2178     O2193   2.369       .  S
Eu2179     O3158   2.403       .  S
Eu2179     O3164   2.358       .  S
Eu2179     O3175   2.372       .  S
Eu2179     O2193   2.379       .  S
Eu2179     O2181   2.356       .  S
O2180     Eu3162   2.359   1_545  S
O2180     Eu3163   2.355   1_545  S
C2184      C2280   1.475       .  S
C2185      C2287   1.476       .  S
C2186      C2291   1.476       .  S
C2187      C2273   1.467       .  S
C2189      N2201   1.488       .  S
H2190      O2191   0.967       .  S
O2191     Eu3161   2.373   1_545  S
O2191     Eu3163   2.369   1_545  S
H2192      O2193   0.967       .  S
N2194      C2198   1.384       .  A
N2194      C2195   1.385       .  A
C2195      C2196   1.378       .  A
C2195      C2257   1.476       .  S
C2196      C2197   1.336       .  A
C2196      H2199   1.081       .  S
C2197      C2198   1.380       .  A
C2197      H2200   1.082       .  S
N2201      C2205   1.384       .  A
N2201      C2202   1.388       .  A
C2202      C2203   1.379       .  A
C2203      C2204   1.337       .  A
C2203      H2206   1.083       .  S
C2204      C2205   1.380       .  A
C2204      H2207   1.083       .  S
C2205      C2258   1.478       .  S
N2208      C2212   1.386       .  A
N2208      C2209   1.383       .  A
C2209      C2210   1.381       .  A
C2209      C2227   1.473       .  S
C2210      C2211   1.332       .  A
C2210      H2213   1.083       .  S
C2211      C2212   1.380       .  A
C2211      H2214   1.083       .  S
O2215      C2226   1.297       .  A
O2215     Eu2743   2.460   1_554  S
O2216      C2227   1.294       .  A
O2216     Eu2742   2.445   1_554  S
O2217      C2228   1.301       .  A
O2217     Eu3207   2.536   1_545  S
O2218      C2229   1.302       .  A
O2218     Eu2223   2.539       .  S
O2219      C2229   1.298       .  A
O2219     Eu2745   2.520   1_554  S
O2220      C2228   1.297       .  A
O2220     Eu2744   2.520   1_554  S
O2221      C2227   1.276       .  A
O2221     Eu2223   2.413       .  S
O2222      C2226   1.275       .  A
O2222     Eu2223   2.404       .  S
Eu2223     O3201   2.532       .  S
Eu2223     O2233   2.370       .  S
Eu2223     O3209   2.369       .  S
Eu2223     O2224   2.357       .  S
Eu2223     O3215   2.370       .  S
O2224     Eu2745   2.357   1_554  S
O2224     Eu2742   2.328   1_554  S
O2225     Eu3207   2.360   1_545  S
O2225     Eu3727   2.330   1_544  S
O2225     Eu2744   2.361   1_554  S
C2228      N2269   1.488       .  S
C2229      N2276   1.487       .  S
H2230      O2231   0.966       .  S
O2231     Eu3207   2.355   1_545  S
O2231     Eu2744   2.364   1_554  S
O2231     Eu3726   2.341   1_544  S
H2232      O2233   0.966       .  S
O2233     Eu2743   2.339   1_554  S
O2233     Eu2745   2.379   1_554  S
O2234      C2257   1.299       .  A
O2234     Eu2250   2.471       .  S
O2235      C2258   1.298       .  A
O2235     Eu2251   2.469       .  S
O2236      C2259   1.276       .  A
O2236     Eu2252   2.412       .  S
O2237      C2260   1.275       .  A
O2237     Eu2253   2.407       .  S
O2238      C2261   1.276       .  A
O2238     Eu2253   2.411       .  S
O2239      C2262   1.276       .  A
O2239     Eu2252   2.411       .  S
O2240      C2263   1.300       .  A
O2240     Eu3238   2.530   1_545  S
O2241      C2264   1.299       .  A
O2241     Eu2254   2.524       .  S
O2242      C2263   1.298       .  A
O2242     Eu2252   2.520       .  S
O2243      C2264   1.299       .  A
O2243     Eu2253   2.524       .  S
O2244      C2259   1.297       .  A
O2244     Eu3234   2.461   1_545  S
O2245      C2262   1.299       .  A
O2245     Eu3235   2.473   1_545  S
O2246      C2261   1.295       .  A
O2246     Eu2251   2.450       .  S
O2247      C2260   1.297       .  A
O2247     Eu2250   2.462       .  S
O2248      C2257   1.276       .  A
O2248     Eu2254   2.407       .  S
O2249      C2258   1.276       .  A
O2249     Eu2254   2.413       .  S
Eu2250     O2708   2.461       .  S
Eu2250     O3228   2.454       .  S
Eu2250     O2716   2.329       .  S
Eu2250     O3707   2.341       .  S
Eu2250     O2268   2.335       .  S
Eu2250     O3240   2.328       .  S
Eu2251     O2707   2.471       .  S
Eu2251     O3229   2.459       .  S
Eu2251     O3701   2.334       .  S
Eu2251     O2725   2.339       .  S
Eu2251     O2255   2.338       .  S
Eu2251     O3250   2.337       .  S
Eu2252     O2712   2.541       .  S
Eu2252     O2717   2.358       .  S
Eu2252     O2723   2.359       .  S
Eu2252     O2266   2.366       .  S
Eu2252     O2256   2.366       .  S
Eu2253     O2711   2.528       .  S
Eu2253     O2716   2.357       .  S
Eu2253     O2725   2.368       .  S
Eu2253     O2255   2.366       .  S
Eu2253     O2268   2.370       .  S
Eu2254     O3224   2.527       .  S
Eu2254     O2255   2.363       .  S
Eu2254     O3250   2.370       .  S
Eu2254     O2268   2.373       .  S
Eu2254     O3240   2.356       .  S
O2256     Eu3234   2.330   1_545  S
O2256     Eu3238   2.357   1_545  S
C2259      C2380   1.477       .  S
C2260      C2448   1.476       .  S
C2261      C2441   1.472       .  S
C2262      C2458   1.477       .  S
C2263      N2290   1.485       .  S
C2264      N2283   1.484       .  S
H2265      O2266   0.964       .  S
O2266     Eu3235   2.332   1_545  S
O2266     Eu3238   2.359   1_545  S
H2267      O2268   0.967       .  S
N2269      C2273   1.382       .  A
N2269      C2270   1.385       .  A
C2270      C2271   1.380       .  A
C2270      C2397   1.473       .  S
C2271      C2272   1.333       .  A
C2271      H2274   1.083       .  S
C2272      C2273   1.380       .  A
C2272      H2275   1.082       .  S
N2276      C2280   1.386       .  A
N2276      C2277   1.386       .  A
C2277      C2278   1.380       .  A
C2277      C2429   1.476       .  S
C2278      C2279   1.332       .  A
C2278      H2281   1.083       .  S
C2279      C2280   1.380       .  A
C2279      H2282   1.083       .  S
N2283      C2287   1.382       .  A
N2283      C2284   1.383       .  A
C2284      C2285   1.380       .  A
C2284      C2428   1.479       .  S
C2285      C2286   1.343       .  A
C2285      H2288   1.082       .  S
C2286      C2287   1.379       .  A
C2286      H2289   1.083       .  S
N2290      C2294   1.388       .  A
N2290      C2291   1.384       .  A
C2291      C2292   1.379       .  A
C2292      C2293   1.334       .  A
C2292      H2295   1.081       .  S
C2293      C2294   1.379       .  A
C2293      H2296   1.083       .  S
C2294      C2398   1.480       .  S
O2297      C2308   1.298       .  A
O2297     Eu2825   2.467   1_554  S
O2298      C2309   1.299       .  A
O2298     Eu2824   2.471   1_554  S
O2299      C2310   1.298       .  A
O2299     Eu2305   2.525       .  S
O2300      C2311   1.298       .  A
O2301      C2311   1.299       .  A
O2301     Eu2827   2.526   1_554  S
O2302      C2310   1.300       .  A
O2302     Eu2826   2.536   1_554  S
O2303      C2309   1.276       .  A
O2303     Eu2305   2.409       .  S
O2304      C2308   1.275       .  A
O2304     Eu2305   2.410       .  S
Eu2305     O2307   2.355       .  S
Eu2305     O2313   2.364       .  S
O2306     Eu2827   2.356   1_554  S
O2307     Eu2825   2.337   1_554  S
O2307     Eu2826   2.366   1_554  S
C2310      N2358   1.490       .  S
C2311      N2351   1.487       .  S
H2312      O2313   0.966       .  S
O2313     Eu2826   2.366   1_554  S
O2313     Eu2824   2.348   1_554  S
H2314      O2315   0.966       .  S
O2315     Eu2827   2.362   1_554  S
O2316      C2339   1.299       .  A
O2316     Eu2332   2.473       .  S
O2317      C2340   1.295       .  A
O2317     Eu2333   2.456       .  S
O2318      C2341   1.277       .  A
O2318     Eu2334   2.416       .  S
O2319      C2342   1.274       .  A
O2319     Eu2335   2.399       .  S
O2320      C2343   1.277       .  A
O2320     Eu2335   2.414       .  S
O2321      C2344   1.276       .  A
O2321     Eu2334   2.408       .  S
O2322      C2345   1.296       .  A
O2322     Eu2336   2.511       .  S
O2323      C2346   1.299       .  A
O2324      C2345   1.298       .  A
O2324     Eu2334   2.518       .  S
O2325      C2346   1.298       .  A
O2325     Eu2335   2.523       .  S
O2326      C2341   1.296       .  A
O2326     Eu2332   2.458       .  S
O2327      C2344   1.297       .  A
O2327     Eu2333   2.459       .  S
O2328      C2343   1.298       .  A
O2329      C2342   1.295       .  A
O2330      C2339   1.274       .  A
O2330     Eu2336   2.400       .  S
O2331      C2340   1.277       .  A
O2331     Eu2336   2.416       .  S
Eu2332     O2790   2.451       .  S
Eu2332     O2805   2.350       .  S
Eu2332     O2338   2.326       .  S
Eu2333     O2789   2.452       .  S
Eu2333     O2799   2.339       .  S
Eu2333     O2348   2.335       .  S
Eu2334     O2794   2.519       .  S
Eu2334     O2799   2.365       .  S
Eu2334     O2805   2.365       .  S
Eu2334     O2348   2.362       .  S
Eu2334     O2338   2.360       .  S
Eu2335     O2793   2.532       .  S
Eu2335     O2798   2.364       .  S
Eu2335     O2807   2.357       .  S
Eu2335     O2337   2.355       .  S
Eu2335     O2350   2.373       .  S
Eu2336     O2348   2.359       .  S
Eu2336     O2338   2.363       .  S
C2341      C2451   1.476       .  S
C2342      C2444   1.470       .  S
C2343      C2455   1.478       .  S
C2344      C2383   1.473       .  S
C2345      N2365   1.482       .  S
C2346      N2372   1.485       .  S
H2347      O2348   0.965       .  S
H2349      O2350   0.967       .  S
N2351      C2355   1.385       .  A
N2351      C2352   1.385       .  A
C2352      C2353   1.380       .  A
C2352      C2432   1.474       .  S
C2353      C2354   1.333       .  A
C2353      H2356   1.082       .  S
C2354      C2355   1.380       .  A
C2354      H2357   1.083       .  S
N2358      C2362   1.387       .  A
N2358      C2359   1.387       .  A
C2359      C2360   1.380       .  A
C2359      C2433   1.473       .  S
C2360      C2361   1.329       .  A
C2360      H2363   1.083       .  S
C2361      C2362   1.381       .  A
C2361      H2364   1.083       .  S
N2365      C2369   1.383       .  A
N2365      C2366   1.385       .  A
C2366      C2367   1.380       .  A
C2367      C2368   1.328       .  A
C2367      H2370   1.083       .  S
C2368      C2369   1.380       .  A
C2368      H2371   1.083       .  S
C2369      C2430   1.471       .  S
N2372      C2376   1.386       .  A
N2372      C2373   1.384       .  A
C2373      C2374   1.380       .  A
C2374      C2375   1.331       .  A
C2374      H2377   1.082       .  S
C2375      C2376   1.378       .  A
C2375      H2378   1.083       .  S
C2376      C2431   1.473       .  S
N2379      C2383   1.384       .  A
N2379      C2380   1.386       .  A
N2379      C2399   1.486       .  S
C2380      C2381   1.380       .  A
C2381      C2382   1.333       .  A
C2381      H2384   1.082       .  S
C2382      C2383   1.380       .  A
C2382      H2385   1.083       .  S
O2386      C2397   1.297       .  A
O2386     Eu2422   2.461       .  S
O2387      C2398   1.300       .  A
O2387     Eu2421   2.481       .  S
O2388      C2399   1.298       .  A
O2388     Eu2394   2.520       .  S
O2389      C2400   1.299       .  A
O2389     Eu2394   2.525       .  S
O2390      C2400   1.300       .  A
O2390     Eu2424   2.530       .  S
O2391      C2399   1.300       .  A
O2391     Eu2423   2.533       .  S
O2392      C2398   1.275       .  A
O2392     Eu2394   2.407       .  S
O2393      C2397   1.274       .  A
O2393     Eu2886   2.402   1_554  S
Eu2394     O2885   2.413       .  S
Eu2394     O2896   2.372       .  S
Eu2394     O2888   2.364       .  S
Eu2394     O2395   2.357       .  S
Eu2394     O2402   2.369       .  S
O2395     Eu2424   2.357       .  S
O2395     Eu2421   2.324       .  S
O2396     Eu2886   2.355   1_554  S
O2396     Eu2422   2.323       .  S
O2396     Eu2915   2.358   1_554  S
C2400      N2454   1.487       .  S
H2401      O2402   0.966       .  S
O2402     Eu2423   2.374       .  S
O2402     Eu2421   2.346       .  S
H2403      O2404   0.967       .  S
O2404     Eu2886   2.374   1_554  S
O2404     Eu2422   2.346       .  S
O2404     Eu2916   2.375   1_554  S
O2405      C2428   1.300       .  A
O2405     Eu2421   2.479       .  S
O2406      C2429   1.296       .  A
O2406     Eu2422   2.459       .  S
O2407      C2430   1.275       .  A
O2407     Eu2423   2.401       .  S
O2408      C2431   1.273       .  A
O2408     Eu2424   2.396       .  S
O2409      C2432   1.275       .  A
O2409     Eu2916   2.408   1_554  S
O2410      C2433   1.274       .  A
O2410     Eu2915   2.401   1_554  S
O2411      C2434   1.298       .  A
O2411     Eu2425   2.523       .  S
O2412      C2435   1.300       .  A
O2412     Eu2425   2.531       .  S
O2413      C2434   1.300       .  A
O2413     Eu2423   2.529       .  S
O2414      C2435   1.298       .  A
O2414     Eu2424   2.524       .  S
O2415      C2430   1.294       .  A
O2415     Eu2421   2.445       .  S
O2416      C2433   1.297       .  A
O2416     Eu2422   2.459       .  S
O2417      C2432   1.297       .  A
O2417     Eu2422   2.458       .  S
O2418      C2431   1.298       .  A
O2418     Eu2421   2.466       .  S
O2419      C2428   1.276       .  A
O2419     Eu2425   2.408       .  S
O2420      C2429   1.275       .  A
O2420     Eu2917   2.404   1_554  S
Eu2421     O2439   2.347       .  S
Eu2421     O2427   2.327       .  S
Eu2422     O2426   2.325       .  S
Eu2422     O2437   2.341       .  S
Eu2423     O2902   2.399       .  S
Eu2423     O2888   2.362       .  S
Eu2423     O2929   2.369       .  S
Eu2423     O2427   2.354       .  S
Eu2424     O2901   2.419       .  S
Eu2424     O2896   2.365       .  S
Eu2424     O2918   2.355       .  S
Eu2424     O2439   2.380       .  S
Eu2425     O2912   2.405       .  S
Eu2425     O2918   2.356       .  S
Eu2425     O2929   2.375       .  S
Eu2425     O2439   2.373       .  S
Eu2425     O2427   2.351       .  S
O2426     Eu2916   2.354   1_554  S
O2426     Eu2917   2.353   1_554  S
C2434      N2447   1.485       .  S
C2435      N2440   1.488       .  S
H2436      O2437   0.967       .  S
O2437     Eu2915   2.370   1_554  S
O2437     Eu2917   2.370   1_554  S
H2438      O2439   0.967       .  S
N2440      C2444   1.385       .  A
N2440      C2441   1.385       .  A
C2441      C2442   1.381       .  A
C2442      C2443   1.330       .  A
C2442      H2445   1.083       .  S
C2443      C2444   1.380       .  A
C2443      H2446   1.084       .  S
N2447      C2451   1.385       .  A
N2447      C2448   1.386       .  A
C2448      C2449   1.379       .  A
C2449      C2450   1.334       .  A
C2449      H2452   1.082       .  S
C2450      C2451   1.380       .  A
C2450      H2453   1.083       .  S
N2454      C2458   1.384       .  A
N2454      C2455   1.384       .  A
C2455      C2456   1.381       .  A
C2456      C2457   1.340       .  A
C2456      H2459   1.084       .  S
C2457      C2458   1.380       .  A
C2457      H2460   1.084       .  S
C2462      C2463   1.379       .  A
C2462      C2554   1.473       .  S
C2463      C2464   1.332       .  A
C2463      H2466   1.082       .  S
C2464      C2465   1.380       .  A
C2464      H2467   1.083       .  S
C2465      C2800   1.475       .  S
O2468      C2479   1.297       .  A
O2468     Eu2504   2.517       .  S
O2469      C2480   1.298       .  A
O2469     Eu2503   2.524       .  S
O2470      C2481   1.273       .  A
O2470     Eu2476   2.393       .  S
O2471      C2482   1.277       .  A
O2472      C2482   1.296       .  A
O2472     Eu2506   2.458       .  S
O2473      C2481   1.297       .  A
O2473     Eu2505   2.462       .  S
O2474      C2480   1.299       .  A
O2474     Eu2476   2.530       .  S
O2475      C2479   1.299       .  A
O2475     Eu2476   2.523       .  S
Eu2476     O2478   2.355       .  S
Eu2476     O2484   2.373       .  S
O2477     Eu2506   2.332       .  S
O2478     Eu2504   2.351       .  S
O2478     Eu2505   2.328       .  S
C2481      C2598   1.469       .  S
C2482      C2605   1.475       .  S
H2483      O2484   0.967       .  S
O2484     Eu2505   2.340       .  S
O2484     Eu2503   2.363       .  S
H2485      O2486   0.967       .  S
O2486     Eu2506   2.335       .  S
O2487      C2510   1.297       .  A
O2487     Eu2503   2.514       .  S
O2488      C2511   1.301       .  A
O2488     Eu2504   2.534       .  S
O2489      C2512   1.297       .  A
O2489     Eu2505   2.463       .  S
O2490      C2513   1.295       .  A
O2490     Eu2506   2.449       .  S
O2491      C2514   1.296       .  A
O2491     Eu2506   2.453       .  S
O2492      C2515   1.293       .  A
O2492     Eu2505   2.437       .  S
O2493      C2516   1.275       .  A
O2493     Eu2507   2.402       .  S
O2494      C2517   1.274       .  A
O2495      C2516   1.297       .  A
O2495     Eu2505   2.465       .  S
O2496      C2517   1.298       .  A
O2496     Eu2506   2.467       .  S
O2497      C2512   1.275       .  A
O2497     Eu2503   2.410       .  S
O2498      C2515   1.276       .  A
O2498     Eu2504   2.413       .  S
O2499      C2514   1.274       .  A
O2500      C2513   1.275       .  A
O2501      C2510   1.298       .  A
O2501     Eu2507   2.516       .  S
O2502      C2511   1.297       .  A
O2502     Eu2507   2.519       .  S
Eu2503     O2509   2.361       .  S
Eu2504     O2519   2.363       .  S
Eu2505     O2519   2.347       .  S
Eu2505     O2509   2.322       .  S
Eu2506     O2508   2.331       .  S
Eu2506     O2521   2.335       .  S
Eu2507     O2519   2.369       .  S
Eu2507     O2509   2.361       .  S
C2510      N2522   1.482       .  S
C2511      N2536   1.487       .  S
C2512      C2858   1.479       .  S
C2513      C2865   1.472       .  S
C2514      C2847   1.473       .  S
C2515      C2854   1.469       .  S
C2516      C2619   1.471       .  S
C2517      C2615   1.475       .  S
H2518      O2519   0.966       .  S
H2520      O2521   0.965       .  S
N2522      C2526   1.383       .  A
N2522      C2523   1.383       .  A
C2523      C2524   1.379       .  A
C2523      C2831   1.476       .  S
C2524      C2525   1.339       .  A
C2524      H2527   1.083       .  S
C2525      C2526   1.380       .  A
C2525      H2528   1.083       .  S
C2526      C2585   1.478       .  S
C2530      C2531   1.379       .  A
C2530      C2555   1.465       .  S
C2531      C2532   1.330       .  A
C2531      H2534   1.082       .  S
C2532      C2533   1.381       .  A
C2532      H2535   1.083       .  S
C2533      C2832   1.469       .  S
N2536      C2540   1.385       .  A
N2536      C2537   1.383       .  A
C2537      C2538   1.380       .  A
C2537      C2801   1.471       .  S
C2538      C2539   1.336       .  A
C2538      H2541   1.084       .  S
C2539      C2540   1.380       .  A
C2539      H2542   1.083       .  S
C2540      C2586   1.476       .  S
O2543      C2554   1.295       .  A
O2543     Eu3563   2.453   1_545  S
O2544      C2555   1.295       .  A
O2544     Eu3562   2.447   1_545  S
O2545      C2556   1.301       .  A
O2546      C2557   1.300       .  A
O2546     Eu2551   2.531       .  S
O2547      C2557   1.297       .  A
O2547     Eu3565   2.518   1_545  S
O2548      C2556   1.298       .  A
O2548     Eu3564   2.522   1_545  S
O2549      C2555   1.273       .  A
O2549     Eu2551   2.394       .  S
O2550      C2554   1.275       .  A
O2550     Eu2551   2.405       .  S
Eu2551     O2561   2.363       .  S
Eu2551     O2552   2.356       .  S
O2552     Eu3565   2.357   1_545  S
O2552     Eu3562   2.326   1_545  S
O2553     Eu3564   2.358   1_545  S
C2556      N2604   1.485       .  S
C2557      N2597   1.485       .  S
H2558      O2559   0.965       .  S
O2559     Eu3564   2.370   1_545  S
H2560      O2561   0.965       .  S
O2561     Eu3563   2.335   1_545  S
O2561     Eu3565   2.367   1_545  S
O2562      C2585   1.298       .  A
O2562     Eu2578   2.475       .  S
O2563      C2586   1.299       .  A
O2563     Eu2579   2.473       .  S
O2564      C2587   1.278       .  A
O2564     Eu2580   2.422       .  S
O2565      C2588   1.279       .  A
O2565     Eu2581   2.427       .  S
O2566      C2589   1.275       .  A
O2566     Eu2581   2.404       .  S
O2567      C2590   1.275       .  A
O2567     Eu2580   2.404       .  S
O2568      C2591   1.298       .  A
O2569      C2592   1.298       .  A
O2569     Eu2582   2.521       .  S
O2570      C2591   1.300       .  A
O2570     Eu2580   2.533       .  S
O2571      C2592   1.299       .  A
O2571     Eu2581   2.526       .  S
O2572      C2587   1.297       .  A
O2573      C2590   1.298       .  A
O2574      C2589   1.297       .  A
O2574     Eu2579   2.459       .  S
O2575      C2588   1.296       .  A
O2575     Eu2578   2.455       .  S
O2576      C2585   1.277       .  A
O2576     Eu2582   2.415       .  S
O2577      C2586   1.276       .  A
O2577     Eu2582   2.409       .  S
Eu2578     O3528   2.467       .  S
Eu2578     O3536   2.339       .  S
Eu2578     O2596   2.345       .  S
Eu2579     O3527   2.472       .  S
Eu2579     O3545   2.341       .  S
Eu2579     O2583   2.339       .  S
Eu2580     O3532   2.527       .  S
Eu2580     O3537   2.360       .  S
Eu2580     O3543   2.379       .  S
Eu2580     O2594   2.375       .  S
Eu2580     O2584   2.349       .  S
Eu2581     O3531   2.535       .  S
Eu2581     O3536   2.354       .  S
Eu2581     O3545   2.357       .  S
Eu2581     O2583   2.373       .  S
Eu2581     O2596   2.357       .  S
Eu2582     O2583   2.363       .  S
Eu2582     O2596   2.371       .  S
C2587      C2694   1.478       .  S
C2588      C2690   1.479       .  S
C2589      C2704   1.473       .  S
C2590      C2626   1.473       .  S
C2591      N2611   1.488       .  S
C2592      N2618   1.485       .  S
H2593      O2594   0.966       .  S
H2595      O2596   0.967       .  S
N2597      C2601   1.384       .  A
N2597      C2598   1.381       .  A
C2598      C2599   1.378       .  A
C2599      C2600   1.335       .  A
C2599      H2602   1.079       .  S
C2600      C2601   1.379       .  A
C2600      H2603   1.083       .  S
C2601      C2643   1.472       .  S
N2604      C2608   1.386       .  A
N2604      C2605   1.383       .  A
C2605      C2606   1.380       .  A
C2606      C2607   1.337       .  A
C2606      H2609   1.082       .  S
C2607      C2608   1.380       .  A
C2607      H2610   1.083       .  S
C2608      C2675   1.478       .  S
N2611      C2615   1.386       .  A
N2611      C2612   1.384       .  A
C2612      C2613   1.380       .  A
C2612      C2674   1.474       .  S
C2613      C2614   1.335       .  A
C2613      H2616   1.082       .  S
C2614      C2615   1.380       .  A
C2614      H2617   1.083       .  S
N2618      C2622   1.383       .  A
N2618      C2619   1.383       .  A
C2619      C2620   1.379       .  A
C2620      C2621   1.336       .  A
C2620      H2623   1.083       .  S
C2621      C2622   1.380       .  A
C2621      H2624   1.083       .  S
C2622      C2644   1.473       .  S
N2625      C2629   1.386       .  A
N2625      C2626   1.384       .  A
N2625      C2680   1.486       .  S
C2626      C2627   1.379       .  A
C2627      C2628   1.332       .  A
C2627      H2630   1.081       .  S
C2628      C2629   1.378       .  A
C2628      H2631   1.082       .  S
C2629      C2718   1.474       .  S
O2632      C2643   1.299       .  A
O2632     Eu2668   2.471       .  S
O2633      C2644   1.297       .  A
O2633     Eu2667   2.464       .  S
O2634      C2645   1.300       .  A
O2634     Eu2640   2.533       .  S
O2635      C2646   1.300       .  A
O2635     Eu2640   2.531       .  S
O2636      C2646   1.299       .  A
O2636     Eu2670   2.526       .  S
O2637      C2645   1.298       .  A
O2637     Eu2669   2.522       .  S
O2638      C2644   1.276       .  A
O2638     Eu2640   2.409       .  S
O2639      C2643   1.275       .  A
O2639     Eu3624   2.402   1_545  S
Eu2640     O3623   2.407       .  S
Eu2640     O3634   2.372       .  S
Eu2640     O3626   2.358       .  S
Eu2640     O2641   2.366       .  S
Eu2640     O2648   2.364       .  S
O2641     Eu2670   2.369       .  S
O2641     Eu2667   2.337       .  S
O2642     Eu3624   2.364   1_545  S
O2642     Eu2668   2.335       .  S
O2642     Eu3653   2.358   1_545  S
C2645      N2700   1.488       .  S
C2646      N2686   1.486       .  S
H2647      O2648   0.965       .  S
O2648     Eu2669   2.360       .  S
O2648     Eu2667   2.337       .  S
H2649      O2650   0.965       .  S
O2650     Eu3624   2.361   1_545  S
O2650     Eu2668   2.339       .  S
O2650     Eu3654   2.369   1_545  S
O2651      C2674   1.297       .  A
O2651     Eu2667   2.462       .  S
O2652      C2675   1.298       .  A
O2652     Eu2668   2.471       .  S
O2653      C2676   1.275       .  A
O2653     Eu2669   2.409       .  S
O2654      C2677   1.274       .  A
O2654     Eu2670   2.403       .  S
O2655      C2678   1.276       .  A
O2655     Eu3654   2.407   1_545  S
O2656      C2679   1.273       .  A
O2656     Eu3653   2.399   1_545  S
O2657      C2680   1.301       .  A
O2657     Eu2671   2.535       .  S
O2658      C2681   1.299       .  A
O2658     Eu2671   2.529       .  S
O2659      C2680   1.297       .  A
O2659     Eu2669   2.513       .  S
O2660      C2681   1.300       .  A
O2660     Eu2670   2.532       .  S
O2661      C2676   1.296       .  A
O2661     Eu2667   2.455       .  S
O2662      C2679   1.299       .  A
O2662     Eu2668   2.467       .  S
O2663      C2678   1.296       .  A
O2663     Eu2668   2.461       .  S
O2664      C2677   1.299       .  A
O2664     Eu2667   2.471       .  S
O2665      C2674   1.275       .  A
O2665     Eu2671   2.402       .  S
O2666      C2675   1.276       .  A
O2666     Eu3655   2.413   1_545  S
Eu2667     O2685   2.340       .  S
Eu2667     O2673   2.334       .  S
Eu2668     O2672   2.335       .  S
Eu2668     O2683   2.341       .  S
Eu2669     O3640   2.408       .  S
Eu2669     O3626   2.355       .  S
Eu2669     O3667   2.371       .  S
Eu2669     O2673   2.360       .  S
Eu2670     O3639   2.414       .  S
Eu2670     O3634   2.373       .  S
Eu2670     O3656   2.357       .  S
Eu2670     O2685   2.373       .  S
Eu2671     O3650   2.418       .  S
Eu2671     O3656   2.355       .  S
Eu2671     O3667   2.373       .  S
Eu2671     O2685   2.378       .  S
Eu2671     O2673   2.357       .  S
O2672     Eu3654   2.359   1_545  S
O2672     Eu3655   2.363   1_545  S
C2676      C2772   1.474       .  S
C2677      C2779   1.474       .  S
C2678      C2783   1.472       .  S
C2679      C2765   1.473       .  S
C2681      N2693   1.487       .  S
H2682      O2683   0.965       .  S
O2683     Eu3653   2.377   1_545  S
O2683     Eu3655   2.361   1_545  S
H2684      O2685   0.967       .  S
N2686      C2690   1.385       .  A
N2686      C2687   1.386       .  A
C2687      C2688   1.379       .  A
C2687      C2749   1.476       .  S
C2688      C2689   1.335       .  A
C2688      H2691   1.082       .  S
C2689      C2690   1.381       .  A
C2689      H2692   1.082       .  S
N2693      C2697   1.384       .  A
N2693      C2694   1.384       .  A
C2694      C2695   1.381       .  A
C2695      C2696   1.337       .  A
C2695      H2698   1.083       .  S
C2696      C2697   1.380       .  A
C2696      H2699   1.083       .  S
C2697      C2750   1.474       .  S
N2700      C2704   1.386       .  A
N2700      C2701   1.385       .  A
C2701      C2702   1.379       .  A
C2701      C2719   1.473       .  S
C2702      C2703   1.331       .  A
C2702      H2705   1.082       .  S
C2703      C2704   1.380       .  A
C2703      H2706   1.083       .  S
O2707      C2718   1.298       .  A
O2708      C2719   1.296       .  A
O2709      C2720   1.298       .  A
O2709     Eu3699   2.526   1_545  S
O2710      C2721   1.300       .  A
O2710     Eu2715   2.533       .  S
O2711      C2721   1.299       .  A
O2712      C2720   1.302       .  A
O2713      C2719   1.273       .  A
O2713     Eu2715   2.396       .  S
O2714      C2718   1.273       .  A
O2714     Eu2715   2.395       .  S
Eu2715     O3693   2.521       .  S
Eu2715     O2725   2.364       .  S
Eu2715     O3701   2.362       .  S
Eu2715     O2716   2.356       .  S
Eu2715     O3707   2.374       .  S
O2717     Eu3699   2.364   1_545  S
O2717     Eu3235   2.336   1_545  S
C2720      N2761   1.491       .  S
C2721      N2768   1.489       .  S
H2722      O2723   0.965       .  S
O2723     Eu3699   2.369   1_545  S
O2723     Eu3234   2.352   1_545  S
H2724      O2725   0.965       .  S
O2726      C2749   1.297       .  A
O2726     Eu2742   2.462       .  S
O2727      C2750   1.297       .  A
O2727     Eu2743   2.459       .  S
O2728      C2751   1.274       .  A
O2728     Eu2744   2.401   1_554  S
O2729      C2752   1.276       .  A
O2729     Eu2745   2.411   1_554  S
O2730      C2753   1.275       .  A
O2730     Eu2745   2.408       .  S
O2731      C2754   1.277       .  A
O2731     Eu2744   2.417       .  S
O2732      C2755   1.298       .  A
O2732     Eu3730   2.518   1_545  S
O2733      C2756   1.300       .  A
O2733     Eu2746   2.535       .  S
O2734      C2755   1.297       .  A
O2734     Eu2744   2.514       .  S
O2735      C2756   1.301       .  A
O2735     Eu2745   2.537       .  S
O2736      C2751   1.297       .  A
O2736     Eu3726   2.460   1_544  S
O2737      C2754   1.297       .  A
O2737     Eu3727   2.462   1_545  S
O2738      C2753   1.298       .  A
O2738     Eu2743   2.465       .  S
O2739      C2752   1.297       .  A
O2739     Eu2742   2.461   1_554  S
O2740      C2749   1.275       .  A
O2740     Eu2746   2.407       .  S
O2741      C2750   1.276       .  A
O2741     Eu2746   2.408       .  S
Eu2742     O3720   2.452       .  S
Eu2742     O3215   2.345   1_556  S
Eu2742     O2760   2.338       .  S
Eu2742     O3732   2.327       .  S
Eu2743     O3721   2.468       .  S
Eu2743     O3209   2.339   1_556  S
Eu2743     O2747   2.339       .  S
Eu2743     O3742   2.335       .  S
Eu2744     O2758   2.363       .  S
Eu2744     O2748   2.365       .  S
Eu2745     O2747   2.356       .  S
Eu2745     O2760   2.372       .  S
Eu2746     O3716   2.527       .  S
Eu2746     O2747   2.359       .  S
Eu2746     O3742   2.364       .  S
Eu2746     O2760   2.366       .  S
Eu2746     O3732   2.360       .  S
O2748     Eu3726   2.326   1_545  S
O2748     Eu3730   2.364   1_545  S
C2751      C2872   1.470       .  S
C2752      C2940   1.476       .  S
C2753      C2933   1.478       .  S
C2754      C2950   1.479       .  S
C2755      N2782   1.482       .  S
C2756      N2775   1.491       .  S
H2757      O2758   0.965       .  S
O2758     Eu3727   2.335   1_545  S
O2758     Eu3730   2.366   1_545  S
H2759      O2760   0.967       .  S
N2761      C2765   1.389       .  A
N2761      C2762   1.384       .  A
C2762      C2763   1.381       .  A
C2762      C2889   1.472       .  S
C2763      C2764   1.329       .  A
C2763      H2766   1.084       .  S
C2764      C2765   1.379       .  A
C2764      H2767   1.083       .  S
N2768      C2772   1.386       .  A
N2768      C2769   1.387       .  A
C2769      C2770   1.380       .  A
C2769      C2921   1.475       .  S
C2770      C2771   1.330       .  A
C2770      H2773   1.083       .  S
C2771      C2772   1.380       .  A
C2771      H2774   1.083       .  S
N2775      C2779   1.386       .  A
N2775      C2776   1.386       .  A
C2776      C2777   1.379       .  A
C2776      C2920   1.471       .  S
C2777      C2778   1.334       .  A
C2777      H2780   1.083       .  S
C2778      C2779   1.380       .  A
C2778      H2781   1.083       .  S
N2782      C2786   1.382       .  A
N2782      C2783   1.381       .  A
C2783      C2784   1.380       .  A
C2784      C2785   1.336       .  A
C2784      H2787   1.083       .  S
C2785      C2786   1.379       .  A
C2785      H2788   1.083       .  S
C2786      C2890   1.471       .  S
O2789      C2800   1.295       .  A
O2790      C2801   1.295       .  A
O2791      C2802   1.300       .  A
O2791     Eu2797   2.534       .  S
O2792      C2803   1.298       .  A
O2793      C2803   1.300       .  A
O2794      C2802   1.297       .  A
O2795      C2801   1.276       .  A
O2795     Eu2797   2.409       .  S
O2796      C2800   1.277       .  A
O2796     Eu2797   2.414       .  S
Eu2797     O2799   2.362       .  S
Eu2797     O2805   2.357       .  S
C2802      N2850   1.488       .  S
C2803      N2843   1.487       .  S
H2804      O2805   0.966       .  S
H2806      O2807   0.967       .  S
O2808      C2831   1.298       .  A
O2808     Eu2824   2.471       .  S
O2809      C2832   1.295       .  A
O2809     Eu2825   2.452       .  S
O2810      C2833   1.278       .  A
O2810     Eu2826   2.420   1_554  S
O2811      C2834   1.277       .  A
O2811     Eu2827   2.420       .  S
O2812      C2835   1.276       .  A
O2812     Eu2827   2.411       .  S
O2813      C2836   1.275   1_556  A
O2813     Eu2826   2.403       .  S
O2814      C2837   1.298       .  A
O2814     Eu2828   2.521       .  S
O2815      C2838   1.301       .  A
O2816      C2837   1.300       .  A
O2816     Eu2826   2.533       .  S
O2817      C2838   1.297       .  A
O2817     Eu2827   2.516       .  S
O2818      C2833   1.296       .  A
O2818     Eu2824   2.458   1_554  S
O2819      C2836   1.297       .  A
O2819     Eu2825   2.461   1_554  S
O2820      C2835   1.299       .  A
O2821      C2834   1.298       .  A
O2822      C2831   1.275       .  A
O2822     Eu2828   2.404       .  S
O2823      C2832   1.274       .  A
O2823     Eu2828   2.403       .  S
Eu2824     O2830   2.332       .  S
Eu2825     O2840   2.348       .  S
Eu2826     O2840   2.367       .  S
Eu2826     O2830   2.360       .  S
Eu2827     O2829   2.370       .  S
Eu2827     O2842   2.362       .  S
Eu2828     O2840   2.375       .  S
Eu2828     O2830   2.368       .  S
C2833      C2943   1.478       .  S
C2834      C2936   1.480       .  S
C2835      C2947   1.480       .  S
C2836      C2875   1.471       .  S
C2837      N2857   1.485       .  S
C2838      N2864   1.487       .  S
H2839      O2840   0.965       .  S
H2841      O2842   0.965       .  S
N2843      C2847   1.387       .  A
N2843      C2844   1.385       .  A
C2844      C2845   1.382       .  A
C2844      C2924   1.476       .  S
C2845      C2846   1.329       .  A
C2845      H2848   1.083       .  S
C2846      C2847   1.380       .  A
C2846      H2849   1.083       .  S
N2850      C2854   1.382       .  A
N2850      C2851   1.385       .  A
C2851      C2852   1.379       .  A
C2851      C2925   1.469       .  S
C2852      C2853   1.331       .  A
C2852      H2855   1.084       .  S
C2853      C2854   1.381       .  A
C2853      H2856   1.081       .  S
N2857      C2861   1.384       .  A
N2857      C2858   1.388       .  A
C2858      C2859   1.380       .  A
C2859      C2860   1.333       .  A
C2859      H2862   1.083       .  S
C2860      C2861   1.381       .  A
C2860      H2863   1.083       .  S
C2861      C2922   1.478       .  S
N2864      C2868   1.388       .  A
N2864      C2865   1.384       .  A
C2865      C2866   1.380       .  A
C2866      C2867   1.330       .  A
C2866      H2869   1.082       .  S
C2867      C2868   1.380       .  A
C2867      H2870   1.083       .  S
C2868      C2923   1.474       .  S
N2871      C2875   1.383       .  A
N2871      C2872   1.383       .  A
N2871      C2891   1.488       .  S
C2872      C2873   1.380       .  A
C2873      C2874   1.335       .  A
C2873      H2876   1.084       .  S
C2874      C2875   1.380       .  A
C2874      H2877   1.083       .  S
O2878      C2889   1.294       .  A
O2878     Eu2914   2.444       .  S
O2879      C2890   1.297       .  A
O2879     Eu2913   2.464       .  S
O2880      C2891   1.299       .  A
O2880     Eu2886   2.528   1_554  S
O2881      C2892   1.299       .  A
O2881     Eu2886   2.526       .  S
O2882      C2892   1.299       .  A
O2882     Eu2916   2.528       .  S
O2883      C2891   1.300       .  A
O2883     Eu2915   2.531   1_554  S
O2884      C2890   1.275       .  A
O2884     Eu2886   2.406       .  S
O2885      C2889   1.276       .  A
Eu2886     O2887   2.358       .  S
Eu2886     O2894   2.369       .  S
O2887     Eu2916   2.364       .  S
O2887     Eu2913   2.331       .  S
O2888     Eu2914   2.333       .  S
C2892      N2946   1.487       .  S
H2893      O2894   0.965       .  S
O2894     Eu2915   2.362       .  S
O2894     Eu2913   2.343       .  S
H2895      O2896   0.966       .  S
O2896     Eu2914   2.344       .  S
O2897      C2920   1.298       .  A
O2897     Eu2913   2.466       .  S
O2898      C2921   1.297       .  A
O2898     Eu2914   2.461       .  S
O2899      C2922   1.278       .  A
O2899     Eu2915   2.424       .  S
O2900      C2923   1.274       .  A
O2900     Eu2916   2.400       .  S
O2901      C2924   1.277       .  A
O2902      C2925   1.273       .  A
O2903      C2926   1.299   1_556  A
O2903     Eu2917   2.529       .  S
O2904      C2927   1.300       .  A
O2904     Eu2917   2.530       .  S
O2905      C2926   1.299       .  A
O2905     Eu2915   2.525   1_554  S
O2906      C2927   1.300       .  A
O2906     Eu2916   2.533       .  S
O2907      C2922   1.293       .  A
O2907     Eu2913   2.444       .  S
O2908      C2925   1.296       .  A
O2908     Eu2914   2.452       .  S
O2909      C2924   1.293       .  A
O2909     Eu2914   2.441       .  S
O2910      C2923   1.297       .  A
O2910     Eu2913   2.460       .  S
O2911      C2920   1.273       .  A
O2911     Eu2917   2.396       .  S
O2912      C2921   1.274       .  A
Eu2913     O2931   2.341       .  S
Eu2913     O2919   2.336       .  S
Eu2914     O2918   2.328       .  S
Eu2914     O2929   2.331       .  S
Eu2915     O2919   2.357       .  S
Eu2916     O2931   2.375       .  S
Eu2917     O2931   2.376       .  S
Eu2917     O2919   2.361       .  S
C2926      N2939   1.486       .  S
C2927      N2932   1.489       .  S
H2928      O2929   0.968       .  S
H2930      O2931   0.967       .  S
N2932      C2936   1.388       .  A
N2932      C2933   1.389       .  A
C2933      C2934   1.380       .  A
C2934      C2935   1.331       .  A
C2934      H2937   1.083       .  S
C2935      C2936   1.380       .  A
C2935      H2938   1.083       .  S
N2939      C2943   1.385       .  A
N2939      C2940   1.386       .  A
C2940      C2941   1.380       .  A
C2941      C2942   1.335       .  A
C2941      H2944   1.083       .  S
C2942      C2943   1.381       .  A
C2942      H2945   1.084       .  S
N2946      C2950   1.386       .  A
N2946      C2947   1.387       .  A
C2947      C2948   1.380       .  A
C2948      C2949   1.335       .  A
C2948      H2951   1.083       .  S
C2949      C2950   1.380       .  A
C2949      H2952   1.083       .  S
C2954      C2955   1.381       .  A
C2954      C3046   1.476       .  S
C2955      C2956   1.328       .  A
C2955      H2958   1.083       .  S
C2956      C2957   1.380       .  A
C2956      H2959   1.084       .  S
C2957      C3292   1.476       .  S
O2960      C2971   1.300       .  A
O2960     Eu2996   2.533       .  S
O2961      C2972   1.297       .  A
O2961     Eu2995   2.517       .  S
O2962      C2973   1.274       .  A
O2962     Eu2968   2.400       .  S
O2963      C2974   1.275       .  A
O2964      C2974   1.297       .  A
O2964     Eu2998   2.459       .  S
O2965      C2973   1.298       .  A
O2965     Eu2997   2.464       .  S
O2966      C2972   1.299       .  A
O2966     Eu2968   2.527       .  S
O2967      C2971   1.301       .  A
O2967     Eu2968   2.539       .  S
Eu2968     O2970   2.352       .  S
Eu2968     O2976   2.376       .  S
O2969     Eu2998   2.331       .  S
O2970     Eu2996   2.352       .  S
O2970     Eu2997   2.325       .  S
C2973      C3090   1.470       .  S
C2974      C3097   1.474       .  S
H2975      O2976   0.967       .  S
O2976     Eu2997   2.339       .  S
O2976     Eu2995   2.378       .  S
H2977      O2978   0.967       .  S
O2978     Eu2998   2.342       .  S
O2979      C3002   1.298       .  A
O2979     Eu2995   2.520       .  S
O2980      C3003   1.299       .  A
O2980     Eu2996   2.525       .  S
O2981      C3004   1.298       .  A
O2981     Eu2997   2.466       .  S
O2982      C3005   1.297       .  A
O2982     Eu2998   2.463       .  S
O2983      C3006   1.296       .  A
O2983     Eu2998   2.459       .  S
O2984      C3007   1.298       .  A
O2984     Eu2997   2.467       .  S
O2985      C3008   1.275       .  A
O2985     Eu2999   2.406       .  S
O2986      C3009   1.275       .  A
O2987      C3008   1.294       .  A
O2987     Eu2997   2.449       .  S
O2988      C3009   1.298       .  A
O2988     Eu2998   2.465       .  S
O2989      C3004   1.274       .  A
O2989     Eu2995   2.398       .  S
O2990      C3007   1.275       .  A
O2990     Eu2996   2.406       .  S
O2991      C3006   1.274       .  A
O2992      C3005   1.276       .  A
O2993      C3002   1.298       .  A
O2993     Eu2999   2.520       .  S
O2994      C3003   1.297       .  A
O2994     Eu2999   2.517       .  S
Eu2995     O3001   2.354       .  S
Eu2996     O3011   2.373       .  S
Eu2997     O3011   2.347       .  S
Eu2997     O3001   2.329       .  S
Eu2998     O3000   2.324       .  S
Eu2998     O3013   2.346       .  S
Eu2999     O3011   2.380       .  S
Eu2999     O3001   2.356       .  S
C3002      N3014   1.484       .  S
C3003      N3028   1.484       .  S
C3004      C3350   1.471       .  S
C3005      C3357   1.480       .  S
C3006      C3339   1.473       .  S
C3007      C3346   1.475       .  S
C3008      C3111   1.474       .  S
C3009      C3107   1.476       .  S
H3010      O3011   0.967       .  S
H3012      O3013   0.966       .  S
N3014      C3018   1.383       .  A
N3014      C3015   1.383       .  A
C3015      C3016   1.379       .  A
C3015      C3323   1.473       .  S
C3016      C3017   1.335       .  A
C3016      H3019   1.083       .  S
C3017      C3018   1.379       .  A
C3017      H3020   1.083       .  S
C3018      C3077   1.473       .  S
C3022      C3023   1.379       .  A
C3022      C3047   1.476       .  S
C3023      C3024   1.332       .  A
C3023      H3026   1.082       .  S
C3024      C3025   1.380       .  A
C3024      H3027   1.083       .  S
C3025      C3324   1.477       .  S
N3028      C3032   1.385       .  A
N3028      C3029   1.384       .  A
C3029      C3030   1.380       .  A
C3029      C3293   1.472       .  S
C3030      C3031   1.331       .  A
C3030      H3033   1.084       .  S
C3031      C3032   1.380       .  A
C3031      H3034   1.083       .  S
C3032      C3078   1.476       .  S
O3035      C3046   1.296       .  A
O3036      C3047   1.296       .  A
O3037      C3048   1.300       .  A
O3038      C3049   1.299       .  A
O3038     Eu3043   2.525       .  S
O3039      C3049   1.299       .  A
O3040      C3048   1.299       .  A
O3041      C3047   1.275       .  A
O3041     Eu3043   2.407       .  S
O3042      C3046   1.276       .  A
O3042     Eu3043   2.415       .  S
Eu3043     O3053   2.371       .  S
Eu3043     O3044   2.354       .  S
C3048      N3096   1.488       .  S
C3049      N3089   1.487       .  S
H3050      O3051   0.967       .  S
H3052      O3053   0.966       .  S
O3054      C3077   1.298       .  A
O3054     Eu3070   2.466       .  S
O3055      C3078   1.297       .  A
O3055     Eu3071   2.462       .  S
O3056      C3079   1.274       .  A
O3056     Eu3072   2.399       .  S
O3057      C3080   1.276   1_565  A
O3057     Eu3073   2.412       .  S
O3058      C3081   1.275       .  A
O3058     Eu3073   2.408       .  S
O3059      C3082   1.275       .  A
O3059     Eu3072   2.407   1_545  S
O3060      C3083   1.297       .  A
O3061      C3084   1.300       .  A
O3061     Eu3074   2.531       .  S
O3062      C3083   1.300       .  A
O3062     Eu3072   2.531       .  S
O3063      C3084   1.298       .  A
O3063     Eu3073   2.524       .  S
O3064      C3079   1.296       .  A
O3065      C3082   1.295   1_565  A
O3066      C3081   1.298       .  A
O3066     Eu3071   2.471       .  S
O3067      C3080   1.298       .  A
O3067     Eu3070   2.468   1_545  S
O3068      C3077   1.276       .  A
O3068     Eu3074   2.408       .  S
O3069      C3078   1.276       .  A
O3069     Eu3074   2.411       .  S
Eu3070     O3088   2.347       .  S
Eu3071     O3075   2.332       .  S
Eu3072     O3086   2.360       .  S
Eu3072     O3076   2.366       .  S
Eu3073     O3075   2.366       .  S
Eu3073     O3088   2.364       .  S
Eu3074     O3075   2.365       .  S
Eu3074     O3088   2.375       .  S
C3079      C3186   1.475       .  S
C3080      C3182   1.477       .  S
C3081      C3196   1.477       .  S
C3082      C3118   1.471       .  S
C3083      N3103   1.486       .  S
C3084      N3110   1.488       .  S
H3085      O3086   0.965       .  S
H3087      O3088   0.965       .  S
N3089      C3093   1.383       .  A
N3089      C3090   1.383       .  A
C3090      C3091   1.379       .  A
C3091      C3092   1.334       .  A
C3091      H3094   1.082       .  S
C3092      C3093   1.379       .  A
C3092      H3095   1.083       .  S
C3093      C3135   1.470       .  S
N3096      C3100   1.386       .  A
N3096      C3097   1.385       .  A
C3097      C3098   1.380       .  A
C3098      C3099   1.332       .  A
C3098      H3101   1.083       .  S
C3099      C3100   1.380       .  A
C3099      H3102   1.083       .  S
C3100      C3167   1.474       .  S
N3103      C3107   1.387       .  A
N3103      C3104   1.383       .  A
C3104      C3105   1.380       .  A
C3104      C3166   1.473       .  S
C3105      C3106   1.333       .  A
C3105      H3108   1.082       .  S
C3106      C3107   1.380       .  A
C3106      H3109   1.083       .  S
N3110      C3114   1.388       .  A
N3110      C3111   1.386       .  A
C3111      C3112   1.380       .  A
C3112      C3113   1.327       .  A
C3112      H3115   1.083       .  S
C3113      C3114   1.380       .  A
C3113      H3116   1.083       .  S
C3114      C3136   1.477       .  S
N3117      C3121   1.385       .  A
N3117      C3118   1.385       .  A
N3117      C3172   1.489       .  S
C3118      C3119   1.380       .  A
C3119      C3120   1.331       .  A
C3119      H3122   1.082       .  S
C3120      C3121   1.381       .  A
C3120      H3123   1.084       .  S
C3121      C3210   1.471       .  S
O3124      C3135   1.297       .  A
O3124     Eu3160   2.463       .  S
O3125      C3136   1.296       .  A
O3125     Eu3159   2.454       .  S
O3126      C3137   1.297       .  A
O3126     Eu3132   2.519       .  S
O3127      C3138   1.299   1_565  A
O3127     Eu3132   2.526       .  S
O3128      C3138   1.299       .  A
O3128     Eu3162   2.526   1_545  S
O3129      C3137   1.300       .  A
O3129     Eu3161   2.528       .  S
O3130      C3136   1.275       .  A
O3130     Eu3132   2.413       .  S
O3131      C3135   1.273       .  A
Eu3132     O3133   2.360       .  S
Eu3132     O3140   2.370       .  S
O3133     Eu3162   2.359       .  S
O3133     Eu3159   2.335       .  S
O3134     Eu3160   2.333       .  S
C3137      N3192   1.484       .  S
C3138      N3178   1.485       .  S
H3139      O3140   0.966       .  S
O3140     Eu3161   2.368       .  S
O3140     Eu3159   2.333       .  S
H3141      O3142   0.967       .  S
O3142     Eu3160   2.336       .  S
O3143      C3166   1.295       .  A
O3143     Eu3159   2.452       .  S
O3144      C3167   1.298       .  A
O3144     Eu3160   2.465       .  S
O3145      C3168   1.276       .  A
O3145     Eu3161   2.411       .  S
O3146      C3169   1.276       .  A
O3146     Eu3162   2.411       .  S
O3147      C3170   1.276       .  A
O3148      C3171   1.277       .  A
O3149      C3172   1.299       .  A
O3149     Eu3163   2.530   1_545  S
O3150      C3173   1.299       .  A
O3150     Eu3163   2.523       .  S
O3151      C3172   1.300   1_565  A
O3151     Eu3161   2.534       .  S
O3152      C3173   1.298       .  A
O3152     Eu3162   2.519       .  S
O3153      C3168   1.297       .  A
O3153     Eu3159   2.461       .  S
O3154      C3171   1.294       .  A
O3154     Eu3160   2.444       .  S
O3155      C3170   1.296       .  A
O3155     Eu3160   2.454       .  S
O3156      C3169   1.298       .  A
O3156     Eu3159   2.462       .  S
O3157      C3166   1.276       .  A
O3157     Eu3163   2.408       .  S
O3158      C3167   1.274       .  A
Eu3159     O3177   2.336       .  S
Eu3159     O3165   2.331       .  S
Eu3160     O3164   2.327       .  S
Eu3160     O3175   2.340       .  S
Eu3161     O3165   2.352       .  S
Eu3162     O3177   2.371       .  S
Eu3163     O3177   2.377       .  S
Eu3163     O3165   2.354       .  S
C3168      C3264   1.476       .  S
C3169      C3271   1.477       .  S
C3170      C3275   1.473       .  S
C3171      C3257   1.477       .  S
C3173      N3185   1.484       .  S
H3174      O3175   0.966       .  S
H3176      O3177   0.967       .  S
N3178      C3182   1.384       .  A
N3178      C3179   1.384       .  A
C3179      C3180   1.378       .  A
C3179      C3241   1.475       .  S
C3180      C3181   1.336       .  A
C3180      H3183   1.081       .  S
C3181      C3182   1.380       .  A
C3181      H3184   1.081       .  S
N3185      C3189   1.386       .  A
N3185      C3186   1.385       .  A
C3186      C3187   1.379       .  A
C3187      C3188   1.332       .  A
C3187      H3190   1.083       .  S
C3188      C3189   1.380       .  A
C3188      H3191   1.083       .  S
C3189      C3242   1.476       .  S
N3192      C3196   1.386       .  A
N3192      C3193   1.382       .  A
C3193      C3194   1.379       .  A
C3193      C3211   1.471       .  S
C3194      C3195   1.334       .  A
C3194      H3197   1.081       .  S
C3195      C3196   1.380       .  A
C3195      H3198   1.083       .  S
O3199      C3210   1.295   1_565  A
O3199     Eu3727   2.450   1_554  S
O3200      C3211   1.295       .  A
O3200     Eu3726   2.450   1_554  S
O3201      C3212   1.300       .  A
O3202      C3213   1.297       .  A
O3202     Eu3207   2.518       .  S
O3203      C3213   1.299       .  A
O3203     Eu3729   2.527   1_554  S
O3204      C3212   1.299       .  A
O3204     Eu3728   2.530   1_554  S
O3205      C3211   1.276       .  A
O3205     Eu3207   2.405       .  S
O3206      C3210   1.274       .  A
O3206     Eu3207   2.406   1_545  S
Eu3207     O3217   2.369       .  S
Eu3207     O3208   2.357       .  S
O3208     Eu3729   2.353   1_554  S
O3208     Eu3726   2.328   1_554  S
O3209     Eu3728   2.363   1_554  S
C3212      N3253   1.488       .  S
C3213      N3260   1.483       .  S
H3214      O3215   0.967       .  S
O3215     Eu3728   2.371   1_554  S
H3216      O3217   0.967       .  S
O3217     Eu3727   2.335   1_554  S
O3217     Eu3729   2.377   1_554  S
O3218      C3241   1.298   1_565  A
O3218     Eu3234   2.471       .  S
O3219      C3242   1.297       .  A
O3219     Eu3235   2.461       .  S
O3220      C3243   1.276       .  A
O3220     Eu3236   2.412       .  S
O3221      C3244   1.277       .  A
O3221     Eu3237   2.416       .  S
O3222      C3245   1.274       .  A
O3222     Eu3237   2.400       .  S
O3223      C3246   1.275       .  A
O3223     Eu3236   2.405       .  S
O3224      C3247   1.299       .  A
O3225      C3248   1.297       .  A
O3225     Eu3238   2.519       .  S
O3226      C3247   1.300       .  A
O3226     Eu3236   2.530       .  S
O3227      C3248   1.301       .  A
O3227     Eu3237   2.536       .  S
O3228      C3243   1.296       .  A
O3229      C3246   1.297       .  A
O3230      C3245   1.296       .  A
O3230     Eu3235   2.457       .  S
O3231      C3244   1.299       .  A
O3231     Eu3234   2.475       .  S
O3232      C3241   1.275       .  A
O3232     Eu3238   2.402   1_545  S
O3233      C3242   1.276       .  A
O3233     Eu3238   2.411       .  S
Eu3234     O3692   2.453       .  S
Eu3234     O3700   2.332       .  S
Eu3234     O3252   2.339       .  S
Eu3235     O3691   2.473   1_565  S
Eu3235     O3709   2.339       .  S
Eu3235     O3239   2.341       .  S
Eu3236     O3696   2.538       .  S
Eu3236     O3701   2.358       .  S
Eu3236     O3707   2.373       .  S
Eu3236     O3250   2.379       .  S
Eu3236     O3240   2.350       .  S
Eu3237     O3695   2.519       .  S
Eu3237     O3700   2.358       .  S
Eu3237     O3709   2.382       .  S
Eu3237     O3239   2.360       .  S
Eu3237     O3252   2.370       .  S
Eu3238     O3239   2.359       .  S
Eu3238     O3252   2.375       .  S
C3243      C3364   1.474       .  S
C3244      C3432   1.481       .  S
C3245      C3425   1.471       .  S
C3246      C3442   1.472       .  S
C3247      N3274   1.486       .  S
C3248      N3267   1.486       .  S
H3249      O3250   0.966       .  S
H3251      O3252   0.967       .  S
N3253      C3257   1.387       .  A
N3253      C3254   1.387       .  A
C3254      C3255   1.382       .  A
C3254      C3381   1.478       .  S
C3255      C3256   1.330       .  A
C3255      H3258   1.083       .  S
C3256      C3257   1.381       .  A
C3256      H3259   1.083       .  S
N3260      C3264   1.385       .  A
N3260      C3261   1.383       .  A
C3261      C3262   1.380       .  A
C3261      C3413   1.474       .  S
C3262      C3263   1.334       .  A
C3262      H3265   1.083       .  S
C3263      C3264   1.380       .  A
C3263      H3266   1.082       .  S
N3267      C3271   1.387       .  A
N3267      C3268   1.383       .  A
C3268      C3269   1.380       .  A
C3268      C3412   1.475       .  S
C3269      C3270   1.334       .  A
C3269      H3272   1.081       .  S
C3270      C3271   1.380       .  A
C3270      H3273   1.084       .  S
N3274      C3278   1.384       .  A
N3274      C3275   1.385       .  A
C3275      C3276   1.380       .  A
C3276      C3277   1.333       .  A
C3276      H3279   1.083       .  S
C3277      C3278   1.381       .  A
C3277      H3280   1.083       .  S
C3278      C3382   1.474       .  S
O3281      C3292   1.297       .  A
O3281     Eu3809   2.459   1_554  S
O3282      C3293   1.294       .  A
O3282     Eu3808   2.443   1_554  S
O3283      C3294   1.298       .  A
O3283     Eu3289   2.523       .  S
O3284      C3295   1.298       .  A
O3285      C3295   1.298       .  A
O3285     Eu3811   2.523   1_554  S
O3286      C3294   1.300       .  A
O3286     Eu3810   2.528   1_554  S
O3287      C3293   1.275       .  A
O3287     Eu3289   2.404       .  S
O3288      C3292   1.274       .  A
O3288     Eu3289   2.406       .  S
Eu3289     O3291   2.366       .  S
Eu3289     O3297   2.361       .  S
O3290     Eu3811   2.355   1_554  S
O3291     Eu3809   2.334   1_554  S
O3291     Eu3810   2.371   1_554  S
C3294      N3342   1.486       .  S
C3295      N3335   1.486       .  S
H3296      O3297   0.967       .  S
O3297     Eu3810   2.359   1_554  S
O3297     Eu3808   2.340   1_554  S
H3298      O3299   0.966       .  S
O3299     Eu3811   2.362   1_554  S
O3300      C3323   1.297       .  A
O3300     Eu3316   2.467       .  S
O3301      C3324   1.296       .  A
O3301     Eu3317   2.457       .  S
O3302      C3325   1.277       .  A
O3302     Eu3318   2.416       .  S
O3303      C3326   1.273       .  A
O3303     Eu3319   2.395       .  S
O3304      C3327   1.275       .  A
O3304     Eu3319   2.408       .  S
O3305      C3328   1.277       .  A
O3305     Eu3318   2.415       .  S
O3306      C3329   1.299       .  A
O3306     Eu3320   2.528       .  S
O3307      C3330   1.300       .  A
O3308      C3329   1.299       .  A
O3308     Eu3318   2.524       .  S
O3309      C3330   1.300       .  A
O3309     Eu3319   2.529       .  S
O3310      C3325   1.298       .  A
O3310     Eu3316   2.470       .  S
O3311      C3328   1.296       .  A
O3311     Eu3317   2.456       .  S
O3312      C3327   1.297       .  A
O3313      C3326   1.298       .  A
O3314      C3323   1.274       .  A
O3314     Eu3320   2.397       .  S
O3315      C3324   1.276       .  A
O3315     Eu3320   2.414       .  S
Eu3316     O3774   2.462       .  S
Eu3316     O3789   2.345       .  S
Eu3316     O3322   2.336       .  S
Eu3317     O3773   2.474       .  S
Eu3317     O3783   2.331       .  S
Eu3317     O3332   2.343       .  S
Eu3318     O3778   2.515       .  S
Eu3318     O3783   2.360       .  S
Eu3318     O3789   2.369       .  S
Eu3318     O3332   2.363       .  S
Eu3318     O3322   2.360       .  S
Eu3319     O3777   2.527       .  S
Eu3319     O3782   2.362       .  S
Eu3319     O3791   2.358       .  S
Eu3319     O3321   2.362       .  S
Eu3319     O3334   2.371       .  S
Eu3320     O3332   2.352       .  S
Eu3320     O3322   2.371       .  S
C3325      C3435   1.477       .  S
C3326      C3428   1.471       .  S
C3327      C3439   1.473       .  S
C3328      C3367   1.474       .  S
C3329      N3349   1.486       .  S
C3330      N3356   1.489       .  S
H3331      O3332   0.965       .  S
H3333      O3334   0.967       .  S
N3335      C3339   1.385       .  A
N3335      C3336   1.385       .  A
C3336      C3337   1.379       .  A
C3336      C3416   1.472       .  S
C3337      C3338   1.331       .  A
C3337      H3340   1.083       .  S
C3338      C3339   1.380       .  A
C3338      H3341   1.083       .  S
N3342      C3346   1.386       .  A
N3342      C3343   1.384       .  A
C3343      C3344   1.380       .  A
C3343      C3417   1.474       .  S
C3344      C3345   1.334       .  A
C3344      H3347   1.083       .  S
C3345      C3346   1.379       .  A
C3345      H3348   1.082       .  S
N3349      C3353   1.382       .  A
N3349      C3350   1.383       .  A
C3350      C3351   1.379       .  A
C3351      C3352   1.334       .  A
C3351      H3354   1.084       .  S
C3352      C3353   1.379       .  A
C3352      H3355   1.080       .  S
C3353      C3414   1.471       .  S
N3356      C3360   1.388       .  A
N3356      C3357   1.388       .  A
C3357      C3358   1.381       .  A
C3358      C3359   1.333       .  A
C3358      H3361   1.083       .  S
C3359      C3360   1.380       .  A
C3359      H3362   1.083       .  S
C3360      C3415   1.479       .  S
N3363      C3367   1.384       .  A
N3363      C3364   1.384       .  A
N3363      C3383   1.485       .  S
C3364      C3365   1.380       .  A
C3365      C3366   1.333       .  A
C3365      H3368   1.081       .  S
C3366      C3367   1.380       .  A
C3366      H3369   1.083       .  S
O3370      C3381   1.294       .  A
O3370     Eu3406   2.444       .  S
O3371      C3382   1.296       .  A
O3371     Eu3405   2.456       .  S
O3372      C3383   1.299       .  A
O3372     Eu3378   2.527       .  S
O3373      C3384   1.300       .  A
O3373     Eu3378   2.531       .  S
O3374      C3384   1.299       .  A
O3374     Eu3408   2.524       .  S
O3375      C3383   1.299       .  A
O3375     Eu3407   2.529       .  S
O3376      C3382   1.276       .  A
O3376     Eu3378   2.408       .  S
O3377      C3381   1.277       .  A
O3377     Eu3870   2.421   1_554  S
Eu3378     O3869   2.415       .  S
Eu3378     O3880   2.377       .  S
Eu3378     O3872   2.356       .  S
Eu3378     O3379   2.360       .  S
Eu3378     O3386   2.376       .  S
O3379     Eu3408   2.357       .  S
O3379     Eu3405   2.329       .  S
O3380     Eu3870   2.356   1_554  S
O3380     Eu3406   2.329       .  S
O3380     Eu3899   2.357   1_554  S
C3384      N3438   1.486       .  S
H3385      O3386   0.967       .  S
O3386     Eu3407   2.371       .  S
O3386     Eu3405   2.342       .  S
H3387      O3388   0.967       .  S
O3388     Eu3870   2.369   1_554  S
O3388     Eu3406   2.343       .  S
O3388     Eu3900   2.373   1_554  S
O3389      C3412   1.296       .  A
O3389     Eu3405   2.457       .  S
O3390      C3413   1.295       .  A
O3390     Eu3406   2.449       .  S
O3391      C3414   1.276       .  A
O3391     Eu3407   2.409       .  S
O3392      C3415   1.275       .  A
O3392     Eu3408   2.411       .  S
O3393      C3416   1.274       .  A
O3393     Eu3900   2.400   1_554  S
O3394      C3417   1.275       .  A
O3394     Eu3899   2.407   1_554  S
O3395      C3418   1.298       .  A
O3395     Eu3409   2.519       .  S
O3396      C3419   1.300       .  A
O3396     Eu3409   2.534       .  S
O3397      C3418   1.300       .  A
O3397     Eu3407   2.528       .  S
O3398      C3419   1.298       .  A
O3398     Eu3408   2.524       .  S
O3399      C3414   1.296       .  A
O3399     Eu3405   2.456       .  S
O3400      C3417   1.296       .  A
O3400     Eu3406   2.456       .  S
O3401      C3416   1.295       .  A
O3401     Eu3406   2.453       .  S
O3402      C3415   1.298       .  A
O3402     Eu3405   2.464       .  S
O3403      C3412   1.276       .  A
O3403     Eu3409   2.412       .  S
O3404      C3413   1.277       .  A
O3404     Eu3901   2.414   1_554  S
Eu3405     O3423   2.340       .  S
Eu3405     O3411   2.330       .  S
Eu3406     O3410   2.326       .  S
Eu3406     O3421   2.333       .  S
Eu3407     O3886   2.402       .  S
Eu3407     O3872   2.355       .  S
Eu3407     O3913   2.373       .  S
Eu3407     O3411   2.355       .  S
Eu3408     O3885   2.404       .  S
Eu3408     O3880   2.378       .  S
Eu3408     O3902   2.357       .  S
Eu3408     O3423   2.372       .  S
Eu3409     O3896   2.407       .  S
Eu3409     O3902   2.352       .  S
Eu3409     O3913   2.377       .  S
Eu3409     O3423   2.372       .  S
Eu3409     O3411   2.359       .  S
O3410     Eu3900   2.354   1_554  S
O3410     Eu3901   2.349   1_554  S
C3418      N3431   1.484       .  S
C3419      N3424   1.489       .  S
H3420      O3421   0.967       .  S
O3421     Eu3899   2.368   1_554  S
O3421     Eu3901   2.370   1_554  S
H3422      O3423   0.967       .  S
N3424      C3428   1.387       .  A
N3424      C3425   1.384       .  A
C3425      C3426   1.380       .  A
C3426      C3427   1.330       .  A
C3426      H3429   1.083       .  S
C3427      C3428   1.379       .  A
C3427      H3430   1.083       .  S
N3431      C3435   1.384       .  A
N3431      C3432   1.385       .  A
C3432      C3433   1.380       .  A
C3433      C3434   1.339       .  A
C3433      H3436   1.083       .  S
C3434      C3435   1.380       .  A
C3434      H3437   1.083       .  S
N3438      C3442   1.384       .  A
N3438      C3439   1.384       .  A
C3439      C3440   1.379       .  A
C3440      C3441   1.332       .  A
C3440      H3443   1.081       .  S
C3441      C3442   1.379       .  A
C3441      H3444   1.083       .  S
C3446      C3447   1.380       .  A
C3446      C3538   1.478       .  S
C3447      C3448   1.339       .  A
C3447      H3450   1.083       .  S
C3448      C3449   1.380       .  A
C3448      H3451   1.083       .  S
C3449      C3784   1.479       .  S
O3452      C3463   1.298       .  A
O3452     Eu3488   2.520       .  S
O3453      C3464   1.301       .  A
O3453     Eu3487   2.541       .  S
O3454      C3465   1.273       .  A
O3454     Eu3460   2.399       .  S
O3455      C3466   1.276       .  A
O3456      C3466   1.296       .  A
O3456     Eu3490   2.457       .  S
O3457      C3465   1.299       .  A
O3457     Eu3489   2.472       .  S
O3458      C3464   1.296       .  A
O3458     Eu3460   2.515       .  S
O3459      C3463   1.300       .  A
O3459     Eu3460   2.527       .  S
Eu3460     O3462   2.352       .  S
Eu3460     O3468   2.374       .  S
O3461     Eu3490   2.338       .  S
O3462     Eu3488   2.356       .  S
O3462     Eu3489   2.325       .  S
C3465      C3582   1.474       .  S
C3466      C3589   1.478       .  S
H3467      O3468   0.967       .  S
O3468     Eu3489   2.347       .  S
O3468     Eu3487   2.369       .  S
H3469      O3470   0.967       .  S
O3470     Eu3490   2.335       .  S
O3471      C3494   1.298       .  A
O3471     Eu3487   2.522       .  S
O3472      C3495   1.301       .  A
O3472     Eu3488   2.534       .  S
O3473      C3496   1.296       .  A
O3473     Eu3489   2.460       .  S
O3474      C3497   1.296       .  A
O3474     Eu3490   2.454       .  S
O3475      C3498   1.300       .  A
O3475     Eu3490   2.481       .  S
O3476      C3499   1.297       .  A
O3476     Eu3489   2.461       .  S
O3477      C3500   1.277       .  A
O3477     Eu3491   2.416       .  S
O3478      C3501   1.276       .  A
O3479      C3500   1.298       .  A
O3479     Eu3489   2.470       .  S
O3480      C3501   1.296       .  A
O3480     Eu3490   2.458       .  S
O3481      C3496   1.273       .  A
O3481     Eu3487   2.396       .  S
O3482      C3499   1.276       .  A
O3482     Eu3488   2.407       .  S
O3483      C3498   1.276       .  A
O3484      C3497   1.275       .  A
O3485      C3494   1.299       .  A
O3485     Eu3491   2.529       .  S
O3486      C3495   1.299       .  A
O3486     Eu3491   2.526       .  S
Eu3487     O3493   2.369       .  S
Eu3488     O3503   2.360       .  S
Eu3489     O3503   2.348       .  S
Eu3489     O3493   2.336       .  S
Eu3490     O3492   2.323       .  S
Eu3490     O3505   2.347       .  S
Eu3491     O3503   2.370       .  S
Eu3491     O3493   2.361       .  S
C3494      N3506   1.487       .  S
C3495      N3520   1.488       .  S
C3496      C3842   1.471       .  S
C3497      C3849   1.470       .  S
C3498      C3831   1.481       .  S
C3499      C3838   1.474       .  S
C3500      C3603   1.476       .  S
C3501      C3599   1.476       .  S
H3502      O3503   0.966       .  S
H3504      O3505   0.967       .  S
N3506      C3510   1.385       .  A
N3506      C3507   1.387       .  A
C3507      C3508   1.380       .  A
C3507      C3815   1.471       .  S
C3508      C3509   1.327       .  A
C3508      H3511   1.084       .  S
C3509      C3510   1.381       .  A
C3509      H3512   1.083       .  S
C3510      C3569   1.474       .  S
C3514      C3515   1.379       .  A
C3514      C3539   1.473       .  S
C3515      C3516   1.331       .  A
C3515      H3518   1.082       .  S
C3516      C3517   1.381       .  A
C3516      H3519   1.083       .  S
C3517      C3816   1.471       .  S
N3520      C3524   1.385       .  A
N3520      C3521   1.384       .  A
C3521      C3522   1.381       .  A
C3521      C3785   1.476       .  S
C3522      C3523   1.337       .  A
C3522      H3525   1.083       .  S
C3523      C3524   1.380       .  A
C3523      H3526   1.084       .  S
C3524      C3570   1.476       .  S
O3527      C3538   1.299       .  A
O3528      C3539   1.298       .  A
O3529      C3540   1.300       .  A
O3530      C3541   1.299       .  A
O3530     Eu3535   2.529       .  S
O3531      C3541   1.301       .  A
O3532      C3540   1.299       .  A
O3533      C3539   1.274       .  A
O3533     Eu3535   2.401       .  S
O3534      C3538   1.277       .  A
O3534     Eu3535   2.416       .  S
Eu3535     O3545   2.363       .  S
Eu3535     O3536   2.361       .  S
C3540      N3588   1.485       .  S
C3541      N3581   1.489       .  S
H3542      O3543   0.966       .  S
H3544      O3545   0.965       .  S
O3546      C3569   1.293       .  A
O3546     Eu3562   2.443       .  S
O3547      C3570   1.298       .  A
O3547     Eu3563   2.465       .  S
O3548      C3571   1.274       .  A
O3548     Eu3564   2.402       .  S
O3549      C3572   1.277   1_565  A
O3549     Eu3565   2.417       .  S
O3550      C3573   1.274   1_565  A
O3550     Eu3565   2.403       .  S
O3551      C3574   1.275       .  A
O3551     Eu3564   2.404   1_545  S
O3552      C3575   1.297       .  A
O3553      C3576   1.299       .  A
O3553     Eu3566   2.525       .  S
O3554      C3575   1.301       .  A
O3554     Eu3564   2.534       .  S
O3555      C3576   1.298       .  A
O3555     Eu3565   2.518       .  S
O3556      C3571   1.296       .  A
O3557      C3574   1.296       .  A
O3558      C3573   1.299   1_565  A
O3558     Eu3563   2.471       .  S
O3559      C3572   1.296   1_565  A
O3559     Eu3562   2.455       .  S
O3560      C3569   1.276       .  A
O3560     Eu3566   2.412       .  S
O3561      C3570   1.276       .  A
O3561     Eu3566   2.411       .  S
Eu3562     O3580   2.345       .  S
Eu3563     O3567   2.337       .  S
Eu3564     O3578   2.365       .  S
Eu3564     O3568   2.358       .  S
Eu3565     O3567   2.370       .  S
Eu3565     O3580   2.367       .  S
Eu3566     O3567   2.367       .  S
Eu3566     O3580   2.369       .  S
C3571      C3678   1.474       .  S
C3572      C3674   1.478       .  S
C3573      C3688   1.475       .  S
C3574      C3610   1.472       .  S
C3575      N3595   1.485       .  S
C3576      N3602   1.483       .  S
H3577      O3578   0.965       .  S
H3579      O3580   0.967       .  S
N3581      C3585   1.384       .  A
N3581      C3582   1.387       .  A
C3582      C3583   1.379       .  A
C3583      C3584   1.333       .  A
C3583      H3586   1.081       .  S
C3584      C3585   1.380       .  A
C3584      H3587   1.083       .  S
C3585      C3627   1.473       .  S
N3588      C3592   1.387       .  A
N3588      C3589   1.387       .  A
C3589      C3590   1.380       .  A
C3590      C3591   1.331       .  A
C3590      H3593   1.083       .  S
C3591      C3592   1.380       .  A
C3591      H3594   1.083       .  S
C3592      C3659   1.479       .  S
N3595      C3599   1.385       .  A
N3595      C3596   1.383       .  A
C3596      C3597   1.379       .  A
C3596      C3658   1.473       .  S
C3597      C3598   1.334       .  A
C3597      H3600   1.082       .  S
C3598      C3599   1.380       .  A
C3598      H3601   1.082       .  S
N3602      C3606   1.384       .  A
N3602      C3603   1.383       .  A
C3603      C3604   1.380       .  A
C3604      C3605   1.339       .  A
C3604      H3607   1.083       .  S
C3605      C3606   1.380       .  A
C3605      H3608   1.083       .  S
C3606      C3628   1.477       .  S
N3609      C3613   1.387       .  A
N3609      C3610   1.382       .  A
N3609      C3664   1.487       .  S
C3610      C3611   1.379       .  A
C3611      C3612   1.335       .  A
C3611      H3614   1.081       .  S
C3612      C3613   1.380       .  A
C3612      H3615   1.083       .  S
C3613      C3702   1.477       .  S
O3616      C3627   1.296       .  A
O3616     Eu3652   2.454       .  S
O3617      C3628   1.298       .  A
O3617     Eu3651   2.468       .  S
O3618      C3629   1.299       .  A
O3618     Eu3624   2.528       .  S
O3619      C3630   1.300       .  A
O3619     Eu3624   2.530       .  S
O3620      C3630   1.297       .  A
O3620     Eu3654   2.518       .  S
O3621      C3629   1.300       .  A
O3621     Eu3653   2.530       .  S
O3622      C3628   1.277       .  A
O3622     Eu3624   2.415       .  S
O3623      C3627   1.275       .  A
Eu3624     O3625   2.361       .  S
Eu3624     O3632   2.365       .  S
O3625     Eu3654   2.366       .  S
O3625     Eu3651   2.335       .  S
O3626     Eu3652   2.327       .  S
C3629      N3684   1.489   1_565  S
C3630      N3670   1.485   1_565  S
H3631      O3632   0.966       .  S
O3632     Eu3653   2.363       .  S
O3632     Eu3651   2.344       .  S
H3633      O3634   0.965       .  S
O3634     Eu3652   2.341       .  S
O3635      C3658   1.296       .  A
O3635     Eu3651   2.455       .  S
O3636      C3659   1.296       .  A
O3636     Eu3652   2.457       .  S
O3637      C3660   1.277       .  A
O3637     Eu3653   2.416       .  S
O3638      C3661   1.275       .  A
O3638     Eu3654   2.407       .  S
O3639      C3662   1.277       .  A
O3640      C3663   1.275       .  A
O3641      C3664   1.302       .  A
O3641     Eu3655   2.538   1_545  S
O3642      C3665   1.296       .  A
O3642     Eu3655   2.514       .  S
O3643      C3664   1.297       .  A
O3643     Eu3653   2.518   1_545  S
O3644      C3665   1.299       .  A
O3644     Eu3654   2.526       .  S
O3645      C3660   1.296       .  A
O3645     Eu3651   2.460       .  S
O3646      C3663   1.299       .  A
O3646     Eu3652   2.471       .  S
O3647      C3662   1.296       .  A
O3647     Eu3652   2.454       .  S
O3648      C3661   1.297       .  A
O3648     Eu3651   2.463       .  S
O3649      C3658   1.276       .  A
O3649     Eu3655   2.412       .  S
O3650      C3659   1.277       .  A
Eu3651     O3669   2.343       .  S
Eu3651     O3657   2.333       .  S
Eu3652     O3656   2.335       .  S
Eu3652     O3667   2.334       .  S
Eu3653     O3657   2.357       .  S
Eu3654     O3669   2.369       .  S
Eu3655     O3669   2.376       .  S
Eu3655     O3657   2.353       .  S
C3660      C3756   1.480       .  S
C3661      C3763   1.473       .  S
C3662      C3767   1.473       .  S
C3663      C3749   1.481       .  S
C3665      N3677   1.484       .  S
H3666      O3667   0.966       .  S
H3668      O3669   0.967       .  S
N3670      C3674   1.384       .  A
N3670      C3671   1.387       .  A
C3671      C3672   1.379       .  A
C3671      C3733   1.478       .  S
C3672      C3673   1.334       .  A
C3672      H3675   1.083       .  S
C3673      C3674   1.380       .  A
C3673      H3676   1.082       .  S
N3677      C3681   1.383       .  A
N3677      C3678   1.386       .  A
C3678      C3679   1.379       .  A
C3679      C3680   1.330       .  A
C3679      H3682   1.083       .  S
C3680      C3681   1.381       .  A
C3680      H3683   1.083       .  S
C3681      C3734   1.472       .  S
N3684      C3688   1.388       .  A
N3684      C3685   1.386       .  A
C3685      C3686   1.381       .  A
C3685      C3703   1.474       .  S
C3686      C3687   1.330       .  A
C3686      H3689   1.084       .  S
C3687      C3688   1.379       .  A
C3687      H3690   1.083       .  S
O3691      C3702   1.299       .  A
O3692      C3703   1.296   1_565  A
O3693      C3704   1.297       .  A
O3694      C3705   1.298       .  A
O3694     Eu3699   2.519       .  S
O3695      C3705   1.298       .  A
O3696      C3704   1.301       .  A
O3697      C3703   1.275   1_565  A
O3697     Eu3699   2.408       .  S
O3698      C3702   1.274       .  A
O3698     Eu3699   2.405   1_545  S
Eu3699     O3709   2.369       .  S
Eu3699     O3700   2.367       .  S
C3704      N3745   1.487       .  S
C3705      N3752   1.482       .  S
H3706      O3707   0.966       .  S
H3708      O3709   0.965       .  S
O3710      C3733   1.299       .  A
O3710     Eu3726   2.470   1_545  S
O3711      C3734   1.293       .  A
O3711     Eu3727   2.441       .  S
O3712      C3735   1.276       .  A
O3712     Eu3728   2.410       .  S
O3713      C3736   1.274       .  A
O3713     Eu3729   2.401   1_554  S
O3714      C3737   1.276       .  A
O3714     Eu3729   2.415       .  S
O3715      C3738   1.276       .  A
O3715     Eu3728   2.411       .  S
O3716      C3739   1.300       .  A
O3717      C3740   1.299       .  A
O3717     Eu3730   2.526       .  S
O3718      C3739   1.300       .  A
O3718     Eu3728   2.528       .  S
O3719      C3740   1.300       .  A
O3719     Eu3729   2.532       .  S
O3720      C3735   1.295       .  A
O3721      C3738   1.298       .  A
O3722      C3737   1.295       .  A
O3722     Eu3727   2.451       .  S
O3723      C3736   1.296       .  A
O3723     Eu3726   2.460   1_554  S
O3724      C3733   1.274   1_565  A
O3724     Eu3730   2.404       .  S
O3725      C3734   1.275       .  A
O3725     Eu3730   2.408       .  S
Eu3726     O3744   2.339       .  S
Eu3727     O3731   2.337       .  S
Eu3728     O3742   2.369       .  S
Eu3728     O3732   2.362       .  S
Eu3729     O3731   2.352       .  S
Eu3729     O3744   2.376       .  S
Eu3730     O3731   2.359       .  S
Eu3730     O3744   2.365       .  S
C3735      C3856   1.474       .  S
C3736      C3924   1.472       .  S
C3737      C3917   1.476       .  S
C3738      C3934   1.476       .  S
C3739      N3766   1.485       .  S
C3740      N3759   1.488       .  S
H3741      O3742   0.965       .  S
H3743      O3744   0.966       .  S
N3745      C3749   1.389       .  A
N3745      C3746   1.386       .  A
C3746      C3747   1.380       .  A
C3746      C3873   1.478       .  S
C3747      C3748   1.332       .  A
C3747      H3750   1.083       .  S
C3748      C3749   1.380       .  A
C3748      H3751   1.083       .  S
N3752      C3756   1.385       .  A
N3752      C3753   1.386       .  A
C3753      C3754   1.378       .  A
C3753      C3905   1.480       .  S
C3754      C3755   1.335       .  A
C3754      H3757   1.082       .  S
C3755      C3756   1.380       .  A
C3755      H3758   1.082       .  S
N3759      C3763   1.384       .  A
N3759      C3760   1.384       .  A
C3760      C3761   1.380       .  A
C3760      C3904   1.473       .  S
C3761      C3762   1.336       .  A
C3761      H3764   1.082       .  S
C3762      C3763   1.380       .  A
C3762      H3765   1.084       .  S
N3766      C3770   1.384       .  A
N3766      C3767   1.382       .  A
C3767      C3768   1.380       .  A
C3768      C3769   1.334       .  A
C3768      H3771   1.083       .  S
C3769      C3770   1.379       .  A
C3769      H3772   1.082       .  S
C3770      C3874   1.471       .  S
O3773      C3784   1.299       .  A
O3774      C3785   1.297       .  A
O3775      C3786   1.299       .  A
O3775     Eu3781   2.523       .  S
O3776      C3787   1.298       .  A
O3777      C3787   1.300       .  A
O3778      C3786   1.297       .  A
O3779      C3785   1.276       .  A
O3779     Eu3781   2.413       .  S
O3780      C3784   1.276       .  A
O3780     Eu3781   2.412       .  S
Eu3781     O3783   2.360       .  S
Eu3781     O3789   2.357       .  S
C3786      N3834   1.482       .  S
C3787      N3827   1.485       .  S
H3788      O3789   0.966       .  S
H3790      O3791   0.966       .  S
O3792      C3815   1.295       .  A
O3792     Eu3808   2.452       .  S
O3793      C3816   1.294       .  A
O3793     Eu3809   2.448       .  S
O3794      C3817   1.276   1_556  A
O3794     Eu3810   2.409       .  S
O3795      C3818   1.276       .  A
O3795     Eu3811   2.412       .  S
O3796      C3819   1.274       .  A
O3796     Eu3811   2.397       .  S
O3797      C3820   1.275       .  A
O3797     Eu3810   2.405       .  S
O3798      C3821   1.297       .  A
O3798     Eu3812   2.519       .  S
O3799      C3822   1.303       .  A
O3800      C3821   1.300       .  A
O3800     Eu3810   2.529       .  S
O3801      C3822   1.296       .  A
O3801     Eu3811   2.513       .  S
O3802      C3817   1.295   1_556  A
O3802     Eu3808   2.447       .  S
O3803      C3820   1.297       .  A
O3803     Eu3809   2.461       .  S
O3804      C3819   1.299       .  A
O3805      C3818   1.296       .  A
O3806      C3815   1.273       .  A
O3806     Eu3812   2.396       .  S
O3807      C3816   1.276       .  A
O3807     Eu3812   2.413       .  S
Eu3808     O3814   2.330       .  S
Eu3809     O3824   2.339       .  S
Eu3810     O3824   2.355       .  S
Eu3810     O3814   2.365       .  S
Eu3811     O3813   2.368       .  S
Eu3811     O3826   2.362       .  S
Eu3812     O3824   2.351       .  S
Eu3812     O3814   2.369       .  S
C3817      C3927   1.472       .  S
C3818      C3920   1.478       .  S
C3819      C3931   1.476       .  S
C3820      C3859   1.472       .  S
C3821      N3841   1.486       .  S
C3822      N3848   1.488       .  S
H3823      O3824   0.965       .  S
H3825      O3826   0.966       .  S
N3827      C3831   1.387       .  A
N3827      C3828   1.384       .  A
C3828      C3829   1.378       .  A
C3828      C3908   1.477       .  S
C3829      C3830   1.336       .  A
C3829      H3832   1.082       .  S
C3830      C3831   1.379       .  A
C3830      H3833   1.081       .  S
N3834      C3838   1.380       .  A
N3834      C3835   1.383       .  A
C3835      C3836   1.378       .  A
C3835      C3909   1.473       .  S
C3836      C3837   1.339       .  A
C3836      H3839   1.082       .  S
C3837      C3838   1.379       .  A
C3837      H3840   1.080       .  S
N3841      C3845   1.383       .  A
N3841      C3842   1.385       .  A
C3842      C3843   1.380       .  A
C3843      C3844   1.331       .  A
C3843      H3846   1.083       .  S
C3844      C3845   1.380       .  A
C3844      H3847   1.082       .  S
C3845      C3906   1.469       .  S
N3848      C3852   1.387       .  A
N3848      C3849   1.383       .  A
C3849      C3850   1.380       .  A
C3850      C3851   1.331       .  A
C3850      H3853   1.083       .  S
C3851      C3852   1.380       .  A
C3851      H3854   1.082       .  S
C3852      C3907   1.473       .  S
N3855      C3859   1.384       .  A
N3855      C3856   1.383       .  A
N3855      C3875   1.484       .  S
C3856      C3857   1.380       .  A
C3857      C3858   1.333       .  A
C3857      H3860   1.082       .  S
C3858      C3859   1.379       .  A
C3858      H3861   1.082       .  S
O3862      C3873   1.297       .  A
O3862     Eu3898   2.461       .  S
O3863      C3874   1.297       .  A
O3863     Eu3897   2.461       .  S
O3864      C3875   1.298       .  A
O3864     Eu3870   2.520       .  S
O3865      C3876   1.300       .  A
O3865     Eu3870   2.530       .  S
O3866      C3876   1.298       .  A
O3866     Eu3900   2.523       .  S
O3867      C3875   1.298       .  A
O3867     Eu3899   2.524       .  S
O3868      C3874   1.274       .  A
O3868     Eu3870   2.398       .  S
O3869      C3873   1.277       .  A
Eu3870     O3871   2.352       .  S
Eu3870     O3878   2.376       .  S
O3871     Eu3900   2.347       .  S
O3871     Eu3897   2.319       .  S
O3872     Eu3898   2.334       .  S
C3876      N3930   1.488       .  S
H3877      O3878   0.967       .  S
O3878     Eu3899   2.372       .  S
O3878     Eu3897   2.344       .  S
H3879      O3880   0.966       .  S
O3880     Eu3898   2.347       .  S
O3881      C3904   1.298       .  A
O3881     Eu3897   2.464       .  S
O3882      C3905   1.299       .  A
O3882     Eu3898   2.475       .  S
O3883      C3906   1.274       .  A
O3883     Eu3899   2.403       .  S
O3884      C3907   1.273       .  A
O3884     Eu3900   2.394       .  S
O3885      C3908   1.275       .  A
O3886      C3909   1.275       .  A
O3887      C3910   1.299       .  A
O3887     Eu3901   2.528       .  S
O3888      C3911   1.300       .  A
O3888     Eu3901   2.532       .  S
O3889      C3910   1.299       .  A
O3889     Eu3899   2.527       .  S
O3890      C3911   1.297       .  A
O3890     Eu3900   2.520       .  S
O3891      C3906   1.294       .  A
O3891     Eu3897   2.447       .  S
O3892      C3909   1.300       .  A
O3892     Eu3898   2.477       .  S
O3893      C3908   1.298       .  A
O3893     Eu3898   2.468       .  S
O3894      C3907   1.297       .  A
O3894     Eu3897   2.464       .  S
O3895      C3904   1.275       .  A
O3895     Eu3901   2.406       .  S
O3896      C3905   1.275       .  A
Eu3897     O3915   2.342       .  S
Eu3897     O3903   2.331       .  S
Eu3898     O3902   2.330       .  S
Eu3898     O3913   2.333       .  S
Eu3899     O3903   2.359       .  S
Eu3900     O3915   2.375       .  S
Eu3901     O3915   2.376       .  S
Eu3901     O3903   2.359       .  S
C3910      N3923   1.486   1_556  S
C3911      N3916   1.486       .  S
H3912      O3913   0.967       .  S
H3914      O3915   0.967       .  S
N3916      C3920   1.388       .  A
N3916      C3917   1.386       .  A
C3917      C3918   1.380       .  A
C3918      C3919   1.331       .  A
C3918      H3921   1.083       .  S
C3919      C3920   1.381       .  A
C3919      H3922   1.083       .  S
N3923      C3927   1.384       .  A
N3923      C3924   1.384       .  A
C3924      C3925   1.379       .  A
C3925      C3926   1.332       .  A
C3925      H3928   1.081       .  S
C3926      C3927   1.381       .  A
C3926      H3929   1.084       .  S
N3930      C3934   1.384       .  A
N3930      C3931   1.386       .  A
C3931      C3932   1.380       .  A
C3932      C3933   1.337       .  A
C3932      H3935   1.083       .  S
C3933      C3934   1.380       .  A
C3933      H3936   1.083       .  S
