geometry optimzed in LAMMPS
_audit_creation_date              2020-11-30 
_audit_creation_method            'lammps2cif' 
_symmetry_space_group_name_H-M    'P1' 
_symmetry_Int_Tables_number       1 
_symmetry_cell_setting            triclinic 
loop_ 
_symmetry_equiv_pos_as_xyz 
  x,y,z 
_cell_length_a                    30.59555638 
_cell_length_b                    33.50146923727649 
_cell_length_c                    32.19995011748531 
_cell_angle_alpha                 89.77623900318696 
_cell_angle_beta                  89.6131759641389 
_cell_angle_gamma                 90.16350258360714 
loop_ 
_atom_site_label 
_atom_site_type_symbol 
_atom_site_fract_x 
_atom_site_fract_y 
_atom_site_fract_z 
_atom_site_charge 
C1          C  0.37700425  0.39886346  0.08296361     0.42900
N2          N  0.37272576  0.45476547  0.05093799     0.01800
C3          C  0.18421795  0.57071776  0.06467771    -0.06100
H4          H  0.14811293  0.43822472  0.04576384     0.07300
C5          C  0.24580343  0.44047418  0.89466350    -0.06400
Co6        Co  0.29501563  0.50198682  0.07875839     0.74200
N7          N  0.21359041  0.46275743  0.04742636    -0.25600
Co8        Co  0.21739249  0.50694443  0.00050182     0.74100
C9          C  0.20289735  0.42357609  0.90342154     0.43000
N10         N  0.34909408  0.46139773  0.92938625     0.01400
N11         N  0.21965348  0.46514266  0.95168453     0.01500
N12         N  0.23744946  0.56669271  0.11248034    -0.46400
H13         H  0.31664283  0.41320270  0.12335198     0.07300
N14         N  0.24422875  0.46109678  0.07612563     0.01800
N15         N  0.22248043  0.55161084  0.95397900     0.01600
C16         C  0.20520057  0.59239671  0.90452525     0.43200
N17         N  0.37784707  0.45824206  0.95944118    -0.25000
C18         C  0.35155758  0.57621227  0.10390922    -0.06000
N19         N  0.39542070  0.42125297  0.05272105    -0.46200
N20         N  0.19047317  0.57478417  0.94002427    -0.46400
C21         C  0.39228631  0.59430019  0.08858736     0.42900
N22         N  0.24808123  0.54678169  0.07857766     0.01800
N23         N  0.38399685  0.54450084  0.96292805    -0.25100
N24         N  0.34028221  0.45568166  0.07800764    -0.25600
N25         N  0.35428209  0.54863938  0.93377284     0.01400
H26         H  0.44106248  0.57885950  0.97943905     0.07300
H27         H  0.26913304  0.57930064  0.86942955     0.07400
N28         N  0.21722849  0.54809660  0.04997065    -0.25600
N29         N  0.25308689  0.46598697  0.92549599    -0.25200
N30         N  0.37894007  0.54136592  0.05391189     0.01800
C31         C  0.19317694  0.42353441  0.10090117     0.43200
C32         C  0.40129911  0.42505678  0.95365218    -0.06500
N33         N  0.25647318  0.55170359  0.92841082    -0.25200
H34         H  0.26627086  0.43735635  0.86736563     0.07400
N35         N  0.23317367  0.43851879  0.10814894    -0.46400
H36         H  0.42667833  0.41430332  0.97398266     0.07300
C37         C  0.39817938  0.59776113  0.92462774     0.43000
C38         C  0.34046209  0.42164844  0.09997180    -0.06000
Co39       Co  0.37943018  0.49953207  0.00695102     0.73800
N40         N  0.35074268  0.43113541  0.90316396    -0.46200
C41         C  0.19775143  0.58288951  0.10644474     0.43300
N42         N  0.40708401  0.57108598  0.05762745    -0.46200
Co43       Co  0.30347095  0.50723060  0.92880375     0.73900
C44         C  0.24910696  0.57709067  0.89717881    -0.06500
C45         C  0.17989255  0.43950058  0.06023902    -0.06000
N46         N  0.34600559  0.54359995  0.08038621    -0.25600
N47         N  0.18806552  0.44083697  0.93886559    -0.46300
H48         H  0.15231746  0.57326064  0.05066019     0.07300
C49         C  0.41347663  0.57388198  0.95924532    -0.06500
Cl50       Cl  0.29857608  0.50408908  0.00376630    -0.49500
C51         C  0.38297514  0.40700873  0.91637226     0.43100
H52         H  0.32903430  0.58666152  0.12746535     0.07300
N53         N  0.36115739  0.58066627  0.91034871    -0.46200
C54         C  0.79125513  0.41731556  0.10969785     0.42900
N55         N  0.78017923  0.45469008  0.05615620     0.01800
C56         C  0.59720958  0.57271746  0.02215265    -0.06100
H57         H  0.57755755  0.41176255  0.00455657     0.07300
C58         C  0.67650049  0.41726451  0.89040954    -0.06400
Co59       Co  0.69662865  0.50016378  0.06795207     0.74200
N60         N  0.62405060  0.45456781  0.02756740    -0.25600
Co61       Co  0.63175603  0.49604282  0.98025445     0.74100
C62         C  0.63656780  0.39654334  0.90208715     0.43000
N63         N  0.77155981  0.44933442  0.93038809     0.01400
N64         N  0.64130482  0.45026110  0.93747305     0.01500
N65         N  0.64224280  0.57747116  0.07744552    -0.46400
H66         H  0.72421836  0.43320874  0.13764537     0.07300
N67         N  0.64875232  0.45565654  0.06092742     0.01800
N68         N  0.64222654  0.53792696  0.93316178     0.01600
C69         C  0.63837725  0.58928572  0.89359088     0.43200
N70         N  0.79807867  0.45061057  0.96253724    -0.25000
C71         C  0.75377149  0.56562032  0.10724163    -0.06000
N72         N  0.80978806  0.43156742  0.07424399    -0.46200
N73         N  0.61776690  0.56942021  0.92463287    -0.46400
C74         C  0.79963248  0.57800435  0.10376294     0.42900
N75         N  0.64976782  0.54441172  0.05593741     0.01800
N76         N  0.80031150  0.53619373  0.95790342    -0.25100
N77         N  0.74389926  0.45718229  0.07850578    -0.25600
N78         N  0.77338591  0.53576158  0.92600247     0.01400
H79         H  0.86351526  0.56408580  0.96644161     0.07300
H80         H  0.70407614  0.57510625  0.86213727     0.07400
N81         N  0.62436207  0.54150523  0.02312573    -0.25600
N82         N  0.67693488  0.44979952  0.91430805    -0.25200
N83         N  0.78281691  0.54078990  0.05157971     0.01800
C84         C  0.61254429  0.40069876  0.06648973     0.43200
C85         C  0.83083617  0.42459855  0.95574225    -0.06500
N86         N  0.67807529  0.53661541  0.91027353    -0.25200
H87         H  0.70212582  0.40824085  0.86907123     0.07400
N88         N  0.64344034  0.42353391  0.08467971    -0.46400
H89         H  0.85976224  0.42160644  0.97462752     0.07300
C90         C  0.82479531  0.57540535  0.90628242     0.43000
C91         C  0.74750141  0.43417727  0.11222731    -0.06000
Co92       Co  0.79102532  0.49556952  0.00718070     0.73800
N93         N  0.78429223  0.42368140  0.90184729    -0.46200
C94         C  0.60925285  0.59652406  0.05782460     0.43300
N95         N  0.81525336  0.56130968  0.06851185    -0.46200
Co96       Co  0.72494295  0.49293859  0.91977793     0.73900
C97         C  0.67825022  0.56762103  0.88387969    -0.06500
C98         C  0.59939495  0.42147362  0.02873814    -0.06000
N99         N  0.74665517  0.54224610  0.07429188    -0.25600
N100        N  0.61631421  0.41840862  0.93159410    -0.46300
H101        H  0.57347187  0.57894075  0.99826987     0.07300
C102        C  0.83428681  0.56032058  0.94814634    -0.06500
Cl103      Cl  0.71125377  0.49631414  0.99387971    -0.49500
C104        C  0.82121461  0.40642596  0.91541509     0.43100
H105        H  0.73163133  0.56824581  0.13338698     0.07300
N106        N  0.78688992  0.55841051  0.89489677    -0.46200
C107        C  0.40507659  0.09438483  0.10986116     0.42900
N108        N  0.44312499  0.04213963  0.12225041     0.01800
C109        C  0.44357228  0.94694920  0.31483786    -0.06100
H110        H  0.46234434  0.08982170  0.32945811     0.07300
C111        C  0.61547480  0.07647614  0.23652328    -0.06400
Co112      Co  0.41959708  0.00599232  0.20414482     0.74200
N113        N  0.45583840  0.05511889  0.27327678    -0.25600
Co114      Co  0.50566787  0.01173796  0.27367062     0.74100
C115        C  0.60825346  0.09516457  0.27673065     0.43000
N116        N  0.57174557  0.04552402  0.14009595     0.01400
N117        N  0.55541268  0.05441382  0.26439128     0.01500
N118        N  0.38999795  0.94542483  0.26702937    -0.46400
H119        H  0.36650469  0.08696593  0.17125050     0.07300
N120        N  0.42421478  0.05287510  0.24560443     0.01800
N121        N  0.55535109  0.96807175  0.27181273     0.01600
C122        C  0.60706990  0.92795059  0.28909724     0.43200
N123        N  0.53904400  0.04269258  0.11380565    -0.25000
C124        C  0.39008095  0.92657515  0.16486582    -0.06000
N125        N  0.43780077  0.07147180  0.09507027    -0.46200
N126        N  0.56998749  0.94575414  0.30298970    -0.46400
C127        C  0.40513539  0.90144820  0.13115508     0.42900
N128        N  0.42334268  0.96737734  0.25422207     0.01800
N129        N  0.53977727  0.95509161  0.12225616    -0.25100
N130        N  0.41642265  0.04497842  0.15433548    -0.25600
N131        N  0.57281855  0.95792734  0.14810483     0.01400
H132        H  0.51997402  0.90950746  0.07903001     0.07300
H133        H  0.64192232  0.93668821  0.22616697     0.07400
N134        N  0.45522827  0.96935343  0.28162914    -0.25600
N135        N  0.58180289  0.05149207  0.23188908    -0.25200
N136        N  0.44364320  0.95485268  0.13174570     0.01800
C137        C  0.40207452  0.09820883  0.28762083     0.43200
C138        C  0.54092116  0.07386093  0.08751081    -0.06500
N139        N  0.58153200  0.96643851  0.23904015    -0.25200
H140        H  0.64390516  0.07768794  0.21641172     0.07400
N141        N  0.39172935  0.07760618  0.25330454    -0.46400
H142        H  0.51741759  0.08046065  0.06353197     0.07300
C143        C  0.58219287  0.90154437  0.11812578     0.43000
C144        C  0.39072248  0.07674850  0.14916652    -0.06000
Co145      Co  0.49135251  0.99848489  0.12119071     0.73800
N146        N  0.59590719  0.07787156  0.13378885    -0.46200
C147        C  0.40003127  0.93122031  0.30484401     0.43300
N148        N  0.43871291  0.92048298  0.11199358    -0.46200
Co149      Co  0.57748118  0.00541000  0.18937756     0.73900
C150        C  0.61428575  0.94144654  0.24665020    -0.06500
C151        C  0.44486260  0.08339265  0.30116737    -0.06000
N152        N  0.41619956  0.95857700  0.16324711    -0.25600
N153        N  0.57047513  0.07996893  0.29234570    -0.46300
H154        H  0.46095603  0.94558769  0.34392328     0.07300
C155        C  0.54300452  0.92050865  0.10158859    -0.06500
Cl156      Cl  0.49854456  0.00541851  0.19727509    -0.49500
C157        C  0.57854032  0.09731620  0.10107991     0.43100
H158        H  0.36547930  0.92057340  0.18829394     0.07300
N159        N  0.59887817  0.92645534  0.14676716    -0.46200
C160        C  0.39624175  0.09480588  0.73204413     0.42900
N161        N  0.44666376  0.05296321  0.74944382     0.01800
C162        C  0.44427588  0.92221744  0.91548680    -0.06100
H163        H  0.47879376  0.07745926  0.95505640     0.07300
C164        C  0.60568143  0.07102596  0.86817328    -0.06400
Co165      Co  0.41835205  0.00847294  0.82602084     0.74200
N166        N  0.45761124  0.04333135  0.90212054    -0.25600
Co167      Co  0.50168330  0.99676877  0.89722099     0.74100
C168        C  0.59036026  0.09025949  0.90635356     0.43000
N169        N  0.57795190  0.04203229  0.77154551     0.01400
N170        N  0.55317551  0.03697721  0.89614523     0.01500
N171        N  0.39067164  0.93088828  0.86845948    -0.46400
H172        H  0.35806597  0.08256979  0.79263377     0.07300
N173        N  0.42679190  0.04896559  0.87430343     0.01800
N174        N  0.54586773  0.95054325  0.89051556     0.01600
C175        C  0.57748480  0.89381780  0.89528885     0.43200
N176        N  0.54660316  0.04559732  0.74366823    -0.25000
C177        C  0.37640181  0.94605560  0.76984895    -0.06000
N178        N  0.43355717  0.07690283  0.71897345    -0.46200
N179        N  0.54690947  0.91729181  0.91276398    -0.46400
C180        C  0.38430784  0.93000766  0.72859203     0.42900
N181        N  0.41789808  0.96165354  0.86875629     0.01800
N182        N  0.53896854  0.95982896  0.73985166    -0.25100
N183        N  0.41931773  0.05345429  0.78140906    -0.25600
N184        N  0.56995430  0.95659938  0.76807327     0.01400
H185        H  0.53183844  0.93336325  0.67910878     0.07300
H186        H  0.61983119  0.90643886  0.83718291     0.07400
N187        N  0.44992326  0.95695971  0.89548117    -0.25600
N188        N  0.58056410  0.03835748  0.86437288    -0.25200
N189        N  0.43899227  0.96671715  0.74611454     0.01800
C190        C  0.42201442  0.09919753  0.91488458     0.43200
C191        C  0.56045695  0.07107097  0.71392456    -0.06500
N192        N  0.57392190  0.95041488  0.85932079    -0.25200
H193        H  0.62977721  0.08124075  0.84578452     0.07400
N194        N  0.40503304  0.08259448  0.88035183    -0.46400
H195        H  0.54371674  0.07714496  0.68512330     0.07300
C196        C  0.59017187  0.91598033  0.72034492     0.43000
C197        C  0.38721846  0.07943449  0.77373831    -0.06000
Co198      Co  0.49271522  0.00630270  0.74404022     0.73800
N199        N  0.61337968  0.06290741  0.76179414    -0.46200
C200        C  0.40526677  0.90479999  0.89709599     0.43300
N201        N  0.42365228  0.94420969  0.71554589    -0.46200
Co202      Co  0.57634028  0.99693937  0.81612320     0.73900
C203        C  0.59570445  0.91572299  0.85983434    -0.06500
C204        C  0.45648219  0.07319334  0.92953791    -0.06000
N205        N  0.41135505  0.96857135  0.77773059    -0.25600
N206        N  0.55788312  0.06738593  0.92176120    -0.46300
H207        H  0.46621390  0.90956901  0.93810729     0.07300
C208        C  0.54876150  0.93480928  0.70842123    -0.06500
Cl209      Cl  0.49728969  0.00227958  0.82060990    -0.49500
C210        C  0.60484931  0.08235826  0.72608082     0.43100
H211        H  0.34752185  0.94424405  0.78935698     0.07300
N212        N  0.60091945  0.93124605  0.75746213    -0.46200
C213        C  0.08698663  0.36998947  0.40756040     0.42900
N214        N  0.05241880  0.35811520  0.46458414     0.01800
C215        C  0.06170667  0.17593145  0.57017766    -0.06100
H216        H  0.04534640  0.15784417  0.41786764     0.07300
C217        C  0.89036851  0.23898636  0.42830845    -0.06400
Co218      Co  0.08065573  0.28134954  0.50398631     0.74200
N219        N  0.04927897  0.21176499  0.45443111    -0.25600
Co220      Co  0.99888383  0.20890043  0.49945571     0.74100
C221        C  0.90000042  0.20085790  0.40875018     0.43000
N222        N  0.92623277  0.33231181  0.46069434     0.01400
N223        N  0.94956938  0.21399194  0.45409942     0.01500
N224        N  0.11266215  0.22479477  0.56986514    -0.46400
H225        H  0.12873996  0.31339357  0.41462079     0.07300
N226        N  0.07923157  0.24022358  0.45622616     0.01800
N227        N  0.94784391  0.20839644  0.54443992     0.01600
C228        C  0.89607197  0.19021928  0.58650027     0.43200
N229        N  0.95632591  0.36032023  0.46422731    -0.25000
C230        C  0.10542561  0.32196040  0.58732615    -0.06000
N231        N  0.05524584  0.38362439  0.43306357    -0.46200
N232        N  0.93433779  0.17840499  0.56867957    -0.46400
C233        C  0.08804716  0.35444322  0.61260144     0.42900
N234        N  0.07959980  0.23378725  0.54540844     0.01800
N235        N  0.95485691  0.35256608  0.55602214    -0.25100
N236        N  0.08052970  0.32850150  0.46134103    -0.25600
N237        N  0.92326528  0.32604978  0.55200499     0.01400
H238        H  0.97108254  0.39355291  0.60551632     0.07300
H239        H  0.85830145  0.24849189  0.57454567     0.07400
N240        N  0.04919657  0.20564256  0.54438104    -0.25600
N241        N  0.92203863  0.24420970  0.45596612    -0.25200
N242        N  0.05161477  0.35059240  0.55598890     0.01800
C243        C  0.10324295  0.20133585  0.40856811     0.43200
C244        C  0.95236060  0.38587740  0.43221137    -0.06500
N245        N  0.91986484  0.23837409  0.54476902    -0.25200
H246        H  0.86178749  0.25767319  0.42598696     0.07400
N247        N  0.11190409  0.23480987  0.42991282    -0.46400
H248        H  0.97338981  0.41118715  0.42569870     0.07300
C249        C  0.91059196  0.35266621  0.61130096     0.43000
C250        C  0.10400190  0.33350741  0.42628722    -0.06000
Co251      Co  0.00384160  0.35673316  0.51051633     0.73800
N252        N  0.90212538  0.33652739  0.42692890    -0.46200
C253        C  0.10406465  0.18894068  0.58696185     0.43300
N254        N  0.05479363  0.37085661  0.59116238    -0.46200
Co255      Co  0.92244451  0.28559328  0.50323740     0.73900
C256        C  0.88691555  0.23002879  0.57064167    -0.06500
C257        C  0.06151987  0.18576594  0.42471243    -0.06000
N258        N  0.08064377  0.32170663  0.55316247    -0.25600
N259        N  0.93703251  0.18679549  0.42658803    -0.46300
H260        H  0.04541359  0.14741138  0.57371400     0.07300
C261        C  0.94965223  0.37105835  0.59281666    -0.06500
Cl262      Cl  0.00148155  0.28292999  0.50440295    -0.49500
C263        C  0.91684914  0.36966174  0.40740865     0.43100
H264        H  0.13111681  0.30092758  0.59417206     0.07300
N265        N  0.89621877  0.32523424  0.58419385    -0.46200
C266        C  0.10355285  0.81836303  0.42630629     0.42900
N267        N  0.05016655  0.80089545  0.46643872     0.01800
C268        C  0.03776782  0.63016251  0.58781831    -0.06100
H269        H  0.02713482  0.61032077  0.41505041     0.07300
C270        C  0.89171430  0.68641364  0.42241601    -0.06400
Co271      Co  0.07308972  0.72483364  0.51070389     0.74200
N272        N  0.04164419  0.65550661  0.46089084    -0.25600
Co273      Co  0.99068600  0.65469562  0.50443859     0.74100
C274        C  0.90869535  0.65263515  0.39952755     0.43000
N275        N  0.92021536  0.77665149  0.45959833     0.01400
N276        N  0.94537272  0.65937421  0.45567323     0.01500
N277        N  0.09023091  0.67764245  0.58993699    -0.46400
H278        H  0.14062973  0.76011112  0.44016015     0.07300
N279        N  0.07326873  0.68213604  0.46375418     0.01800
N280        N  0.93968277  0.65655009  0.54816184     0.01600
C281        C  0.89790436  0.64695761  0.60093785     0.43200
N282        N  0.95059999  0.80465356  0.46183046    -0.25000
C283        C  0.10371694  0.77475891  0.58399540    -0.06000
N284        N  0.06477587  0.83052905  0.44245272    -0.46200
N285        N  0.93379728  0.63303924  0.58107721    -0.46400
C286        C  0.09410150  0.81393328  0.60117023     0.42900
N287        N  0.06721068  0.68008615  0.55533183     0.01800
N288        N  0.94481937  0.80185204  0.55156161    -0.25100
N289        N  0.07775535  0.77063460  0.46750746    -0.25600
N290        N  0.91421371  0.77403141  0.54895311     0.01400
H291        H  0.94776500  0.85715414  0.58595690     0.07300
H292        H  0.85597209  0.70157077  0.58545497     0.07400
N293        N  0.03597581  0.65297623  0.55328672    -0.25600
N294        N  0.91671213  0.68870832  0.45617254    -0.25200
N295        N  0.04481549  0.79845688  0.55641591     0.01800
C296        C  0.08805366  0.65041575  0.40763290     0.43200
C297        C  0.94063432  0.83362196  0.43432246    -0.06500
N298        N  0.91073429  0.68559180  0.54649916    -0.25200
H299        H  0.86549452  0.70654876  0.41442450     0.07400
N300        N  0.10178767  0.67996689  0.43272184    -0.46400
H301        H  0.95751156  0.86188036  0.43103383     0.07300
C302        C  0.88819133  0.81527097  0.59340496     0.43000
C303        C  0.11179152  0.77853842  0.44272745    -0.06000
Co304      Co  0.99765983  0.80241770  0.50913874     0.73800
N305        N  0.88948810  0.78499572  0.43243765    -0.46200
C306        C  0.07369842  0.64681968  0.61212838     0.43300
N307        N  0.05715091  0.82699976  0.58247916    -0.46200
Co308      Co  0.91496782  0.73103171  0.50279931     0.73900
C309        C  0.88242244  0.68143297  0.57802647    -0.06500
C310        C  0.04812935  0.63391632  0.42622237    -0.06000
N311        N  0.07238112  0.76818861  0.55629876    -0.25600
N312        N  0.94180874  0.63679125  0.42190522    -0.46300
H313        H  0.01538699  0.60632327  0.59598247     0.07300
C314        C  0.93135596  0.82924866  0.57936553    -0.06500
Cl315      Cl  0.99409413  0.72851793  0.50682350    -0.49500
C316        C  0.89992064  0.82023884  0.41486690     0.43100
H317        H  0.13222429  0.75613344  0.58784826     0.07300
N318        N  0.87996564  0.78118718  0.57293532    -0.46200
C319        C  0.70192225  0.87941546  0.67885422     0.19200
C320        C  0.74459187  0.89262912  0.68732259    -0.18900
C321        C  0.78073384  0.87590768  0.66713582    -0.11200
C322        C  0.77502156  0.84524402  0.63800795     0.21400
C323        C  0.73224480  0.83227330  0.62926490    -0.20600
C324        C  0.69602520  0.84920105  0.64931518    -0.11400
C325        C  0.81238166  0.82464131  0.61737681    -0.15600
C326        C  0.85423460  0.83774624  0.61642162    -0.29400
C327        C  0.66532595  0.89624698  0.70375312    -0.03700
C328        C  0.62263445  0.89599505  0.69314713    -0.40200
H329        H  0.75007773  0.91569974  0.71016438     0.12600
H330        H  0.81296275  0.88644022  0.67544324     0.12200
H331        H  0.72683350  0.80851928  0.60716950     0.11600
H332        H  0.66375600  0.83769164  0.64256062     0.11900
H333        H  0.80452061  0.79720622  0.60106893     0.14600
H334        H  0.86354439  0.86574278  0.63069253     0.13400
H335        H  0.67472094  0.91119768  0.73220829     0.11100
H336        H  0.61199302  0.88359417  0.66387081     0.13100
C337        C  0.27333848  0.89100318  0.68772494     0.19200
C338        C  0.22972296  0.90175967  0.69607070    -0.18900
C339        C  0.19502080  0.88300885  0.67565338    -0.11200
C340        C  0.20333214  0.85277721  0.64655753     0.21400
C341        C  0.24695743  0.84228104  0.63804704    -0.20600
C342        C  0.28157749  0.86111664  0.65827477    -0.11400
C343        C  0.16813586  0.82943516  0.62611499    -0.15600
C344        C  0.12552186  0.83975666  0.62366934    -0.29400
C345        C  0.30875133  0.90985245  0.71236192    -0.03700
C346        C  0.35160173  0.91028627  0.70177357    -0.40200
H347        H  0.22241904  0.92442362  0.71892434     0.12600
H348        H  0.16194276  0.89146668  0.68368890     0.12200
H349        H  0.25433033  0.81886317  0.61606404     0.11600
H350        H  0.31451788  0.85120781  0.65164046     0.11900
H351        H  0.17881184  0.80229682  0.61109434     0.14600
H352        H  0.11398927  0.86782600  0.63607793     0.13400
H353        H  0.29842138  0.92501448  0.74036767     0.11100
H354        H  0.36274272  0.89775443  0.67264763     0.13100
C355        C  0.78752200  0.15378216  0.63831887     0.19200
C356        C  0.74465359  0.16859641  0.63538227    -0.18900
C357        C  0.71001377  0.15061272  0.65700597    -0.11200
C358        C  0.71728159  0.11711879  0.68237337     0.21400
C359        C  0.76010866  0.10206394  0.68525159    -0.20600
C360        C  0.79489448  0.12001912  0.66334816    -0.11400
C361        C  0.68166021  0.09859786  0.70793878    -0.15600
C362        C  0.63853589  0.10210291  0.69978744    -0.29400
C363        C  0.82301672  0.17631112  0.61640906    -0.03700
C364        C  0.86468252  0.16417797  0.60975174    -0.40200
H365        H  0.73791184  0.19479302  0.61663328     0.12600
H366        H  0.67798391  0.16389125  0.65467433     0.12200
H367        H  0.76675559  0.07645545  0.70486955     0.11600
H368        H  0.82738310  0.10799277  0.66697895     0.11900
H369        H  0.69158293  0.08028234  0.73417240     0.14600
H370        H  0.62752644  0.11790392  0.67233379     0.13400
H371        H  0.81323685  0.20508563  0.60419924     0.11100
H372        H  0.87547970  0.13495764  0.61991936     0.13100
C373        C  0.21475379  0.15905575  0.63694461     0.19200
C374        C  0.25837218  0.16900472  0.62706027    -0.18900
C375        C  0.29324855  0.15412475  0.65053669    -0.11200
C376        C  0.28528646  0.12903536  0.68489755     0.21400
C377        C  0.24166779  0.11885341  0.69454395    -0.20600
C378        C  0.20683206  0.13348646  0.67086524    -0.11400
C379        C  0.32071688  0.11409216  0.71271434    -0.15600
C380        C  0.36395980  0.11336090  0.70342931    -0.29400
C381        C  0.17884944  0.17856811  0.61310740    -0.03700
C382        C  0.13678019  0.16593062  0.61120779    -0.40200
H383        H  0.26550629  0.18894031  0.60133048     0.12600
H384        H  0.32607910  0.16332036  0.64231650     0.12200
H385        H  0.23439499  0.09979545  0.72094342     0.11600
H386        H  0.17381881  0.12574028  0.68010583     0.11900
H387        H  0.30992882  0.10137997  0.74202328     0.14600
H388        H  0.37569650  0.12362028  0.67345344     0.13400
H389        H  0.18807712  0.20504129  0.59546315     0.11100
H390        H  0.12652276  0.13844494  0.62632001     0.13100
C391        C  0.71905248  0.89001528  0.32749629     0.19200
C392        C  0.76218531  0.90188988  0.31820115    -0.18900
C393        C  0.79774066  0.88335619  0.33730121    -0.11200
C394        C  0.79077674  0.85222144  0.36590461     0.21400
C395        C  0.74767453  0.84027916  0.37507808    -0.20600
C396        C  0.71212962  0.85902678  0.35627204    -0.11400
C397        C  0.82710939  0.83003579  0.38560557    -0.15600
C398        C  0.86816386  0.84400459  0.39079927    -0.29400
C399        C  0.68279585  0.90874718  0.30410521    -0.03700
C400        C  0.64024506  0.90863621  0.31570716    -0.40200
H401        H  0.76842006  0.92531146  0.29570421     0.12600
H402        H  0.83047970  0.89274931  0.32871225     0.12200
H403        H  0.74146267  0.81608847  0.39671281     0.11600
H404        H  0.67951397  0.84832364  0.36342737     0.11900
H405        H  0.81861988  0.80102936  0.39858630     0.14600
H406        H  0.87758396  0.87353309  0.38008335     0.13400
H407        H  0.69232833  0.92442131  0.27595819     0.11100
H408        H  0.62992254  0.89601028  0.34522606     0.13100
C409        C  0.21546637  0.85886432  0.38738774     0.19200
C410        C  0.25859815  0.84893345  0.39811720    -0.18900
C411        C  0.29430082  0.86738225  0.37856919    -0.11200
C412        C  0.28764607  0.89625652  0.34756123     0.21400
C413        C  0.24450739  0.90686857  0.33743406    -0.20600
C414        C  0.20874149  0.88850267  0.35713896    -0.11400
C415        C  0.32418913  0.91371322  0.32266406    -0.15600
C416        C  0.36694829  0.91329247  0.33314492    -0.29400
C417        C  0.17921108  0.83527010  0.40643372    -0.03700
C418        C  0.13635059  0.84490121  0.40610605    -0.40200
H419        H  0.26477346  0.82601262  0.42116597     0.12600
H420        H  0.32683811  0.85777282  0.38678465     0.12200
H421        H  0.23841407  0.92887346  0.31344527     0.11600
H422        H  0.17616255  0.89661029  0.34745602     0.11900
H423        H  0.31495963  0.92815129  0.29377463     0.14600
H424        H  0.37759731  0.90130137  0.36266683     0.13400
H425        H  0.18908787  0.80824893  0.42250308     0.11100
H426        H  0.12533438  0.87286853  0.39275205     0.13100
C427        C  0.72086940  0.13052696  0.31666650     0.19200
C428        C  0.76335798  0.11485241  0.31303445    -0.18900
C429        C  0.79888814  0.13354744  0.33224470    -0.11200
C430        C  0.79256518  0.16864168  0.35520791     0.21400
C431        C  0.75006194  0.18416866  0.35886831    -0.20600
C432        C  0.71458545  0.16536456  0.34000432    -0.11400
C433        C  0.82892326  0.19124711  0.37462930    -0.15600
C434        C  0.86865044  0.17657045  0.38442011    -0.29400
C435        C  0.68478229  0.11130269  0.29328462    -0.03700
C436        C  0.64178063  0.11564016  0.30190799    -0.40200
H437        H  0.76917465  0.08820134  0.29480276     0.12600
H438        H  0.83114179  0.12104756  0.32805333     0.12200
H439        H  0.74426062  0.21140558  0.37621867     0.11600
H440        H  0.68273381  0.17895706  0.34272310     0.11900
H441        H  0.82118462  0.22180005  0.38317527     0.14600
H442        H  0.87725109  0.14590810  0.37718587     0.13400
H443        H  0.69451566  0.09160149  0.26816433     0.11100
H444        H  0.63099890  0.13235697  0.32886100     0.13100
C445        C  0.21575958  0.17422948  0.36110463     0.19200
C446        C  0.21048801  0.14387208  0.33159146    -0.18900
C447        C  0.24702063  0.12670120  0.31247060    -0.11200
C448        C  0.28961621  0.13915399  0.32243707     0.21400
C449        C  0.29496451  0.16946466  0.35197959    -0.20600
C450        C  0.25837451  0.18686506  0.37091740    -0.11400
C451        C  0.32688151  0.12077147  0.29968770    -0.15600
C452        C  0.36909382  0.12077011  0.31190076    -0.29400
C453        C  0.17813966  0.19445843  0.38158635    -0.03700
C454        C  0.13679489  0.18014957  0.38375606    -0.40200
H455        H  0.17836258  0.13381146  0.32243985     0.12600
H456        H  0.24192736  0.10362713  0.28953297     0.12200
H457        H  0.32712436  0.18047336  0.35987425     0.11600
H458        H  0.26340367  0.21043818  0.39329360     0.11900
H459        H  0.31835267  0.10458230  0.27168281     0.14600
H460        H  0.37895390  0.13490371  0.34060004     0.13400
H461        H  0.18563049  0.22212690  0.39755780     0.11100
H462        H  0.12805861  0.15185768  0.36986373     0.13100
C463        C  0.60481141  0.70690579  0.08974462     0.19200
C464        C  0.63810091  0.73547269  0.09380943    -0.18900
C465        C  0.62825927  0.77619829  0.09488320    -0.11200
C466        C  0.58463048  0.78920021  0.09263426     0.21400
C467        C  0.55133210  0.76060525  0.08862937    -0.20600
C468        C  0.56116636  0.71988006  0.08738681    -0.11400
C469        C  0.57246564  0.83211102  0.09432938    -0.15600
C470        C  0.59727255  0.86012257  0.11262775    -0.29400
C471        C  0.61692299  0.66401889  0.08749648    -0.03700
C472        C  0.59361414  0.63735665  0.06580492    -0.40200
H473        H  0.67189174  0.72628581  0.09537189     0.12600
H474        H  0.65503117  0.79730399  0.09683999     0.12200
H475        H  0.51762534  0.76980229  0.08706384     0.11600
H476        H  0.53447636  0.69869210  0.08516025     0.11900
H477        H  0.54048750  0.84031696  0.08272617     0.14600
H478        H  0.62795390  0.85213985  0.12705215     0.13400
H479        H  0.64798907  0.65496534  0.10058899     0.11100
H480        H  0.56442723  0.64665169  0.04955178     0.13100
C481        C  0.57481308  0.29098787  0.05925588     0.19200
C482        C  0.53573727  0.27143695  0.04897700    -0.18900
C483        C  0.53256166  0.22980689  0.05143083    -0.11200
C484        C  0.56843872  0.20674216  0.06403278     0.21400
C485        C  0.60811217  0.22630285  0.07283445    -0.20600
C486        C  0.61117509  0.26791685  0.07062252    -0.11400
C487        C  0.56275002  0.16268545  0.06824810    -0.15600
C488        C  0.58911101  0.13936749  0.09126030    -0.29400
C489        C  0.57778554  0.33505897  0.05449913    -0.03700
C490        C  0.60577452  0.35795006  0.07616113    -0.40200
H491        H  0.50752370  0.28843774  0.03917958     0.12600
H492        H  0.50178888  0.21562123  0.04390566     0.12200
H493        H  0.63712563  0.20979131  0.08090053     0.11600
H494        H  0.64241540  0.28182811  0.07679969     0.11900
H495        H  0.53368631  0.14962805  0.05474472     0.14600
H496        H  0.61706330  0.15192489  0.10695863     0.13400
H497        H  0.55625609  0.34897956  0.03208877     0.11100
H498        H  0.62565698  0.34487196  0.10039479     0.13100
C499        C  0.59929736  0.78120793  0.88561146     0.19200
C500        C  0.60454875  0.75605619  0.85117792    -0.18900
C501        C  0.60457574  0.71460195  0.85615781    -0.11200
C502        C  0.59962313  0.69754728  0.89587260     0.21400
C503        C  0.59366055  0.72258220  0.93019719    -0.20600
C504        C  0.59396567  0.76400068  0.92529963    -0.11400
C505        C  0.60223841  0.65395363  0.90295300    -0.15600
C506        C  0.62887799  0.63044489  0.88060279    -0.29400
C507        C  0.59983709  0.82505923  0.87879472    -0.03700
C508        C  0.58140731  0.85109495  0.90524435    -0.40200
H509        H  0.60847743  0.76852005  0.82030071     0.12600
H510        H  0.60833251  0.69602588  0.82896057     0.12200
H511        H  0.59009953  0.71005549  0.96112497     0.11600
H512        H  0.59099507  0.78219377  0.95279786     0.11900
H513        H  0.58602319  0.64180358  0.93037515     0.14600
H514        H  0.64807342  0.64276787  0.85514926     0.13400
H515        H  0.61321920  0.83596312  0.84960532     0.11100
H516        H  0.56508812  0.84078592  0.93322766     0.13100
C517        C  0.59830910  0.28791014  0.90803960     0.19200
C518        C  0.59316322  0.26236339  0.94228916    -0.18900
C519        C  0.59498781  0.22095688  0.93735188    -0.11200
C520        C  0.60151343  0.20430988  0.89763573     0.21400
C521        C  0.60495611  0.23001622  0.86324863    -0.20600
C522        C  0.60316218  0.27130666  0.86827685    -0.11400
C523        C  0.60470044  0.16066605  0.89002892    -0.15600
C524        C  0.59479627  0.13239878  0.91826510    -0.29400
C525        C  0.60096130  0.33155991  0.91494949    -0.03700
C526        C  0.62643242  0.35510216  0.89112791    -0.40200
H527        H  0.58935347  0.27457631  0.97321940     0.12600
H528        H  0.59228269  0.20260624  0.96488671     0.12200
H529        H  0.60927708  0.21810587  0.83222961     0.11600
H530        H  0.60580653  0.29009422  0.84094566     0.11900
H531        H  0.61273797  0.15139866  0.85858805     0.14600
H532        H  0.58398797  0.14019620  0.94925862     0.13400
H533        H  0.58592016  0.34377701  0.94291209     0.11100
H534        H  0.64480275  0.34254218  0.86527023     0.13100
C535        C  0.89279721  0.62316083  0.71788632     0.19200
C536        C  0.91514231  0.59981502  0.74726750    -0.18900
C537        C  0.89937140  0.59635057  0.78826757    -0.11200
C538        C  0.86114561  0.61658497  0.80048786     0.21400
C539        C  0.84043853  0.64151782  0.77172670    -0.20600
C540        C  0.85620492  0.64516959  0.73121967    -0.11400
C541        C  0.83758010  0.60816206  0.84000492    -0.15600
C542        C  0.85490909  0.59268725  0.87485515    -0.29400
C543        C  0.90857697  0.62526258  0.67394187    -0.03700
C544        C  0.88197034  0.63558122  0.64253229    -0.40200
H545        H  0.94391089  0.58323354  0.73813248     0.12600
H546        H  0.91581730  0.57640869  0.80957116     0.12200
H547        H  0.81110879  0.65756819  0.78035646     0.11600
H548        H  0.83930196  0.66535108  0.71054930     0.11900
H549        H  0.80241666  0.61284380  0.83934702     0.14600
H550        H  0.88992934  0.58941806  0.87844150     0.13400
H551        H  0.94294643  0.61977977  0.66756035     0.11100
H552        H  0.84751012  0.64065957  0.64827579     0.13100
C553        C  0.84228819  0.59565680  0.21586563     0.19200
C554        C  0.82297683  0.58779483  0.25474343    -0.18900
C555        C  0.84585455  0.59422635  0.29145244    -0.11200
C556        C  0.88882028  0.60911246  0.29052440     0.21400
C557        C  0.90917870  0.61537469  0.25175310    -0.20600
C558        C  0.88609628  0.60896986  0.21467797    -0.11400
C559        C  0.91146099  0.61996553  0.32983541    -0.15600
C560        C  0.88904274  0.63695687  0.36120023    -0.29400
C561        C  0.81464673  0.58957277  0.17826866    -0.03700
C562        C  0.82872260  0.59006096  0.13844161    -0.40200
H563        H  0.78972968  0.57691847  0.25684614     0.12600
H564        H  0.82956805  0.58784652  0.32077835     0.12200
H565        H  0.94232289  0.62655516  0.25018858     0.11600
H566        H  0.90243386  0.61532367  0.18547023     0.11900
H567        H  0.94675831  0.61732061  0.33168008     0.14600
H568        H  0.85463231  0.64364120  0.35702530     0.13400
H569        H  0.78068792  0.58240652  0.18425097     0.11100
H570        H  0.86271845  0.59572430  0.13110727     0.13100
C571        C  0.89786622  0.36624072  0.73005026     0.19200
C572        C  0.91612707  0.39074748  0.76077498    -0.18900
C573        C  0.89859521  0.39125538  0.80116316    -0.11200
C574        C  0.86253904  0.36694713  0.81159220     0.21400
C575        C  0.84581594  0.34102403  0.78152722    -0.20600
C576        C  0.86348461  0.34025576  0.74145522    -0.11400
C577        C  0.83693254  0.37251803  0.85043204    -0.15600
C578        C  0.85239405  0.38857807  0.88568908    -0.29400
C579        C  0.91545245  0.36810314  0.68668113    -0.03700
C580        C  0.89234046  0.35577111  0.65365624    -0.40200
H581        H  0.94300354  0.41061458  0.75311101     0.12600
H582        H  0.91177533  0.41221129  0.82333092     0.12200
H583        H  0.81807907  0.32200902  0.78876140     0.11600
H584        H  0.84968529  0.31937205  0.71961789     0.11900
H585        H  0.80203796  0.36642890  0.84847210     0.14600
H586        H  0.88718956  0.39314441  0.89016339     0.13400
H587        H  0.94827933  0.37975831  0.68185254     0.11100
H588        H  0.85924810  0.34476676  0.65765955     0.13100
C589        C  0.86551684  0.37400095  0.29847769     0.19200
C590        C  0.86389438  0.34759806  0.26466227    -0.18900
C591        C  0.84609928  0.35976570  0.22661208    -0.11200
C592        C  0.82867757  0.39829565  0.22220676     0.21400
C593        C  0.83014377  0.42450650  0.25605899    -0.20600
C594        C  0.84871425  0.41271170  0.29364093    -0.11400
C595        C  0.80501002  0.41113676  0.18444756    -0.15600
C596        C  0.81614918  0.40107020  0.14527642    -0.29400
C597        C  0.88197020  0.35984064  0.33927828    -0.03700
C598        C  0.90212419  0.38403907  0.36646799    -0.40200
H599        H  0.87611274  0.31743162  0.26783898     0.12600
H600        H  0.84444072  0.33864304  0.20130698     0.12200
H601        H  0.81632491  0.45418497  0.25355080     0.11600
H602        H  0.84832294  0.43344030  0.31931942     0.11900
H603        H  0.77846140  0.43209889  0.18933038     0.14600
H604        H  0.84510899  0.38327168  0.13930458     0.13400
H605        H  0.87824178  0.32831438  0.34678060     0.11100
H606        H  0.90956920  0.41475710  0.35801184     0.13100
C607        C  0.41236947  0.79062085  0.90192150     0.19200
C608        C  0.44733764  0.76397222  0.89686132    -0.18900
C609        C  0.43964829  0.72295865  0.89383949    -0.11200
C610        C  0.39670724  0.70799669  0.89606381     0.21400
C611        C  0.36180746  0.73463829  0.90036490    -0.20600
C612        C  0.36947158  0.77552170  0.90370836    -0.11400
C613        C  0.38705236  0.66478660  0.89623837    -0.15600
C614        C  0.41318999  0.63841002  0.91507285    -0.29400
C615        C  0.42188812  0.83374994  0.90612528    -0.03700
C616        C  0.39283116  0.86245708  0.89697819    -0.40200
H617        H  0.48076457  0.77494698  0.89527663     0.12600
H618        H  0.46714196  0.70315058  0.88983349     0.12200
H619        H  0.32844166  0.72360584  0.90258209     0.11600
H620        H  0.34181209  0.79486643  0.90876860     0.11900
H621        H  0.35487358  0.65522765  0.88590958     0.14600
H622        H  0.44382053  0.64808213  0.92870228     0.13400
H623        H  0.45505453  0.84214261  0.91449020     0.11100
H624        H  0.36083104  0.85497108  0.88488476     0.13100
C625        C  0.40693052  0.29500134  0.91810760     0.19200
C626        C  0.41719224  0.26964321  0.95133687    -0.18900
C627        C  0.41310950  0.22837885  0.94744689    -0.11200
C628        C  0.39946399  0.21149940  0.90966468     0.21400
C629        C  0.38923504  0.23691920  0.87641072    -0.20600
C630        C  0.39309135  0.27824600  0.88041047    -0.11400
C631        C  0.39694721  0.16776658  0.90293251    -0.15600
C632        C  0.41722462  0.14105390  0.92720656    -0.29400
C633        C  0.40992457  0.33859501  0.92478398    -0.03700
C634        C  0.38693032  0.36535082  0.90284765    -0.40200
H635        H  0.42768570  0.28183843  0.98074118     0.12600
H636        H  0.42027983  0.21025372  0.97431300     0.12200
H637        H  0.37890675  0.22473314  0.84696622     0.11600
H638        H  0.38581972  0.29668411  0.85374691     0.11900
H639        H  0.38123246  0.15741543  0.87477425     0.14600
H640        H  0.43525471  0.15026667  0.95432968     0.13400
H641        H  0.42832311  0.34852456  0.95150412     0.11100
H642        H  0.36653106  0.35610346  0.87727759     0.13100
C643        C  0.41111086  0.78918724  0.10964193     0.19200
C644        C  0.42586466  0.76461107  0.07739469    -0.18900
C645        C  0.41873401  0.72340418  0.07903859    -0.11200
C646        C  0.39688020  0.70599422  0.11330900     0.21400
C647        C  0.38259935  0.73053707  0.14571366    -0.20600
C648        C  0.39004273  0.77160879  0.14422054    -0.11400
C649        C  0.38553408  0.66297856  0.11475461    -0.15600
C650        C  0.40840126  0.63527573  0.09410714    -0.29400
C651        C  0.41935902  0.83279548  0.10728954    -0.03700
C652        C  0.39364719  0.85912775  0.12697823    -0.40200
H653        H  0.44231300  0.77741312  0.05056133     0.12600
H654        H  0.42914093  0.70562073  0.05283787     0.12200
H655        H  0.36571247  0.71785171  0.17235033     0.11600
H656        H  0.37966672  0.78932020  0.17049308     0.11900
H657        H  0.35663576  0.65418100  0.13231181     0.14600
H658        H  0.43825322  0.64337409  0.07775025     0.13400
H659        H  0.44754859  0.84331967  0.08971664     0.11100
H660        H  0.36464299  0.84913915  0.14349764     0.13100
C661        C  0.35963784  0.28693316  0.10443851     0.19200
C662        C  0.33036920  0.26502750  0.12932118    -0.18900
C663        C  0.33310957  0.22355490  0.13154825    -0.11200
C664        C  0.36499658  0.20290666  0.10872818     0.21400
C665        C  0.39372975  0.22472035  0.08286117    -0.20600
C666        C  0.39093825  0.26626170  0.08060854    -0.11400
C667        C  0.36890179  0.15928248  0.11567196    -0.15600
C668        C  0.39660152  0.13522127  0.09510407    -0.29400
C669        C  0.35521118  0.33099652  0.10340429    -0.03700
C670        C  0.38545571  0.35592539  0.08741599    -0.40200
H671        H  0.30560437  0.28010304  0.14759471     0.12600
H672        H  0.31059696  0.20758496  0.15178978     0.12200
H673        H  0.41897913  0.21033873  0.06483230     0.11600
H674        H  0.41335310  0.28169557  0.05998674     0.11900
H675        H  0.34937202  0.14681685  0.14083912     0.14600
H676        H  0.41578109  0.14585257  0.06892910     0.13400
H677        H  0.32512086  0.34337137  0.11593692     0.11100
H678        H  0.41600242  0.34488082  0.07475437     0.13100
C679        C  0.17058289  0.63532700  0.79770589     0.19200
C680        C  0.12981764  0.61870715  0.78700398    -0.18900
C681        C  0.11182463  0.62564956  0.74747308    -0.11200
C682        C  0.13427516  0.64936229  0.71792101     0.21400
C683        C  0.17420114  0.66674860  0.72935361    -0.20600
C684        C  0.19219769  0.65960688  0.76843005    -0.11400
C685        C  0.11787962  0.65750135  0.67506517    -0.15600
C686        C  0.08657710  0.63653586  0.65529646    -0.29400
C687        C  0.19437800  0.62501897  0.83664818    -0.03700
C688        C  0.17662244  0.60891576  0.87143205    -0.40200
H689        H  0.11243693  0.59933114  0.80846173     0.12600
H690        H  0.08060255  0.61232913  0.74028143     0.12200
H691        H  0.19219228  0.68536711  0.70753802     0.11600
H692        H  0.22367675  0.67261835  0.77553074     0.11900
H693        H  0.13387819  0.68165844  0.65813339     0.14600
H694        H  0.07030011  0.61158178  0.67041746     0.13400
H695        H  0.22941316  0.63004543  0.83596577     0.11100
H696        H  0.14155017  0.60550767  0.87462595     0.13100
C697        C  0.11330602  0.61357727  0.29630108     0.19200
C698        C  0.09051454  0.61477862  0.25851777    -0.18900
C699        C  0.11234063  0.60818906  0.22056379    -0.11200
C700        C  0.15744189  0.59973752  0.21984234     0.21400
C701        C  0.17960124  0.59724470  0.25786807    -0.20600
C702        C  0.15797903  0.60405617  0.29549505    -0.11400
C703        C  0.18327151  0.59225397  0.18109297    -0.15600
C704        C  0.16883786  0.59491640  0.14155299    -0.29400
C705        C  0.09014429  0.62199961  0.33624628    -0.03700
C706        C  0.11029794  0.63998209  0.36827032    -0.40200
H707        H  0.05592666  0.62151392  0.25832592     0.12600
H708        H  0.09374095  0.60971161  0.19218666     0.12200
H709        H  0.21407943  0.59006284  0.25855794     0.11600
H710        H  0.17632160  0.60144475  0.32400930     0.11900
H711        H  0.21696810  0.58323417  0.18577611     0.14600
H712        H  0.13557529  0.60366764  0.13481796     0.13400
H713        H  0.05541691  0.61549942  0.33846909     0.11100
H714        H  0.14389399  0.64994738  0.36475974     0.13100
C715        C  0.14245132  0.35306062  0.72082550     0.19200
C716        C  0.18268773  0.33808179  0.73433752    -0.18900
C717        C  0.19835177  0.34712430  0.77379727    -0.11200
C718        C  0.17395854  0.37094541  0.80116726     0.21400
C719        C  0.13273334  0.38479791  0.78843519    -0.20600
C720        C  0.11708263  0.37587920  0.74861702    -0.11400
C721        C  0.19548658  0.38427959  0.84003148    -0.15600
C722        C  0.17581049  0.40266530  0.87230845    -0.29400
C723        C  0.12863855  0.34372321  0.67768863    -0.03700
C724        C  0.09927087  0.36493454  0.65587061    -0.40200
H725        H  0.20276358  0.32015099  0.71381430     0.12600
H726        H  0.23027461  0.33624077  0.78257874     0.12200
H727        H  0.11318939  0.40363382  0.80838915     0.11600
H728        H  0.08536155  0.38706311  0.73977651     0.11900
H729        H  0.23071445  0.38052076  0.84100838     0.14600
H730        H  0.14053565  0.40496509  0.87438376     0.13400
H731        H  0.14508069  0.31899197  0.66261604     0.11100
H732        H  0.08311637  0.39050405  0.66954661     0.13100
C733        C  0.12164433  0.38030410  0.29218324     0.19200
C734        C  0.11931049  0.35515949  0.25731956    -0.18900
C735        C  0.13341365  0.36849040  0.21800088    -0.11200
C736        C  0.15087064  0.40707120  0.21312877     0.21400
C737        C  0.15221642  0.43239439  0.24778048    -0.20600
C738        C  0.13757957  0.41936313  0.28674830    -0.11400
C739        C  0.17375752  0.42034220  0.17461721    -0.15600
C740        C  0.16494317  0.40863861  0.13539633    -0.29400
C741        C  0.11085149  0.36412917  0.33423821    -0.03700
C742        C  0.09666279  0.38691756  0.36599286    -0.40200
H743        H  0.10748369  0.32481335  0.26072863     0.12600
H744        H  0.13280634  0.34799718  0.19211164     0.12200
H745        H  0.16605954  0.46210821  0.24496746     0.11600
H746        H  0.14088958  0.43931299  0.31288403     0.11900
H747        H  0.19977716  0.44204952  0.17922501     0.14600
H748        H  0.13707657  0.38962478  0.12878804     0.13400
H749        H  0.11380384  0.33212440  0.33892690     0.11100
H750        H  0.08960371  0.41826737  0.36100564     0.13100
loop_ 
_geom_bond_atom_site_label_1 
_geom_bond_atom_site_label_2 
_geom_bond_distance 
_geom_bond_site_symmetry_2 
_ccdc_geom_bond_type 
C1           N19   1.346       .  A
C1           C38   1.460       .  S
C1          C670   1.469       .  S
N2           N19   1.323       .  A
N2           N24   1.317       .  A
N2          Co39   2.068       .  S
C3           N28   1.349       .  A
C3           C41   1.469       .  S
C3           H48   1.082       .  S
H4           C45   1.082       .  S
C5           N29   1.332       .  A
C5            C9   1.454       .  S
C5           H34   1.081       .  S
Co6          N24   2.083       .  S
Co6          N14   2.071       .  S
Co6          N46   2.090       .  S
Co6          N22   2.080       .  S
Co6         Cl50   2.417       .  S
N7           C45   1.352       .  A
N7           N14   1.322       .  A
N7           Co8   2.114       .  S
Co8          N11   2.110   1_554  S
Co8          N28   2.111       .  S
Co8          N15   2.118   1_554  S
Co8         Cl50   2.489       .  S
C9           N47   1.357       .  A
C9          C722   1.481       .  S
N10          N17   1.316       .  A
N10          N40   1.323       .  A
N10         Co43   2.078       .  S
N11          N29   1.321       .  A
N11          N47   1.331       .  A
N12          C41   1.347       .  A
N12          N22   1.321       .  A
H13          C38   1.081       .  S
N14          N35   1.318       .  A
N15          N33   1.322       .  A
N15          N20   1.331       .  A
C16          N20   1.358       .  A
C16          C44   1.457       .  S
C16         C688   1.489       .  S
N17          C32   1.338       .  A
N17         Co39   2.067   1_556  S
C18          N46   1.343       .  A
C18          C21   1.466       .  S
C18          H52   1.081       .  S
C21          N42   1.344       .  A
C21         C650   1.469       .  S
N22          N28   1.324       .  A
N23          C49   1.338       .  A
N23          N25   1.318       .  A
N23         Co39   2.068   1_556  S
N24          C38   1.339       .  A
N25          N53   1.325       .  A
N25         Co43   2.088       .  S
H26          C49   1.082       .  S
H27          C44   1.082       .  S
N29         Co43   2.071       .  S
N30          N42   1.321       .  A
N30          N46   1.318       .  A
N30         Co39   2.066       .  S
C31          N35   1.344       .  A
C31          C45   1.473       .  S
C31         C740   1.486       .  S
C32          C51   1.461       .  S
C32          H36   1.081       .  S
N33          C44   1.335       .  A
N33         Co43   2.074       .  S
C37          N53   1.352       .  A
C37          C49   1.450       .  S
C37         C614   1.467       .  S
Co39        Cl50   2.482       .  S
N40          C51   1.347       .  A
C41         C704   1.488       .  S
Co43        Cl50   2.419   1_556  S
C51         C634   1.469       .  S
C54          N72   1.356       .  A
C54          C91   1.456       .  S
C54         C596   1.483       .  S
N55          N72   1.329       .  A
N55          N77   1.322       .  A
N55         Co92   2.109       .  S
C56          N81   1.338       .  A
C56          C94   1.450       .  S
C56         H101   1.081   1_554  S
H57          C98   1.080       .  S
C58          N82   1.337       .  A
C58          C62   1.450       .  S
C58          H87   1.083       .  S
Co59         N77   2.073       .  S
Co59         N67   2.101       .  S
Co59         N99   2.090       .  S
Co59         N75   2.102       .  S
Co59       Cl103   2.428   1_554  S
N60          C98   1.339       .  A
N60          N67   1.318       .  A
N60         Co61   2.070   1_554  S
Co61         N64   2.085       .  S
Co61         N81   2.071   1_556  S
Co61         N68   2.085       .  S
Co61       Cl103   2.474       .  S
C62         N100   1.350       .  A
C62         C526   1.467       .  S
N63          N70   1.320       .  A
N63          N93   1.318       .  A
N63         Co96   2.074       .  S
N64          N82   1.317       .  A
N64         N100   1.326       .  A
N65          C94   1.354       .  A
N65          N75   1.328       .  A
H66          C91   1.082       .  S
N67          N88   1.327       .  A
N68          N86   1.318       .  A
N68          N73   1.324       .  A
C69          N73   1.350       .  A
C69          C97   1.454       .  S
C69         C506   1.470       .  S
N70          C85   1.347       .  A
N70         Co92   2.097   1_556  S
C71          N99   1.340       .  A
C71          C74   1.465       .  S
C71         H105   1.081       .  S
C74          N95   1.352       .  A
C74         C562   1.489       .  S
N75          N81   1.320       .  A
N76         C102   1.350       .  A
N76          N78   1.321       .  A
N76         Co92   2.104   1_556  S
N77          C91   1.334       .  A
N78         N106   1.318       .  A
N78         Co96   2.071       .  S
H79         C102   1.082       .  S
H80          C97   1.080       .  S
N82         Co96   2.067       .  S
N83          N95   1.327       .  A
N83          N99   1.323       .  A
N83         Co92   2.101       .  S
C84          N88   1.352       .  A
C84          C98   1.458       .  S
C84         C490   1.478       .  S
C85         C104   1.468       .  S
C85          H89   1.082       .  S
N86          C97   1.340       .  A
N86         Co96   2.075       .  S
C90         N106   1.344       .  A
C90         C102   1.469       .  S
C90         C542   1.479       .  S
Co92       Cl103   2.481   1_554  S
N93         C104   1.345       .  A
C94         C472   1.473       .  S
Co96       Cl103   2.423       .  S
C104        C578   1.476       .  S
C107        N125   1.349       .  A
C107        C144   1.459       .  S
C107        C668   1.471       .  S
N108        N125   1.324       .  A
N108        N130   1.317       .  A
N108       Co145   2.081   1_545  S
C109        N134   1.349       .  A
C109        C147   1.469       .  S
C109        H154   1.081       .  S
H110        C151   1.082       .  S
C111        N135   1.335       .  A
C111        C115   1.456       .  S
C111        H140   1.081       .  S
Co112       N130   2.067       .  S
Co112       N120   2.070       .  S
Co112       N152   2.070   1_545  S
Co112       N128   2.067   1_545  S
Co112      Cl156   2.424       .  S
N113        C151   1.349       .  A
N113        N120   1.322       .  A
N113       Co114   2.109       .  S
Co114       N117   2.104       .  S
Co114       N134   2.108   1_545  S
Co114       N121   2.113   1_545  S
Co114      Cl156   2.481       .  S
C115        N153   1.355       .  A
C115        C436   1.480       .  S
N116        N123   1.318       .  A
N116        N146   1.324       .  A
N116       Co149   2.084       .  S
N117        N135   1.322       .  A
N117        N153   1.329       .  A
N118        C147   1.343       .  A
N118        N128   1.319       .  A
H119        C144   1.081       .  S
N120        N141   1.319       .  A
N121        N139   1.322       .  A
N121        N126   1.330       .  A
C122        N126   1.357       .  A
C122        C150   1.453       .  S
C122        C400   1.481       .  S
N123        C138   1.343       .  A
N123       Co145   2.088   1_545  S
C124        N152   1.336       .  A
C124        C127   1.450       .  S
C124        H158   1.080       .  S
C127        N148   1.352       .  A
C127        C652   1.467       .  S
N128        N134   1.322       .  A
N129        C155   1.342       .  A
N129        N131   1.317       .  A
N129       Co145   2.079       .  S
N130        C144   1.336       .  A
N131        N159   1.324       .  A
N131       Co149   2.082   1_565  S
H132        C155   1.081       .  S
H133        C150   1.081       .  S
N135       Co149   2.072       .  S
N136        N148   1.326       .  A
N136        N152   1.319       .  A
N136       Co145   2.088       .  S
C137        N141   1.344       .  A
C137        C151   1.470       .  S
C137        C452   1.483       .  S
C138        C157   1.462       .  S
C138        H142   1.081       .  S
N139        C150   1.331       .  A
N139       Co149   2.065   1_565  S
C143        N159   1.348       .  A
C143        C155   1.461       .  S
C143        C470   1.475       .  S
Co145      Cl156   2.473   1_565  S
N146        C157   1.349       .  A
C147        C416   1.482       .  S
Co149      Cl156   2.427       .  S
C157        C488   1.477       .  S
C160        N178   1.356       .  A
C160        C197   1.460       .  S
C160        C380   1.491       .  S
N161        N178   1.330       .  A
N161        N183   1.322       .  A
N161       Co198   2.114       .  S
C162        N187   1.338       .  A
C162        C200   1.457       .  S
C162        H207   1.080       .  S
H163        C204   1.081       .  S
C164        N188   1.342       .  A
C164        C168   1.465       .  S
C164        H193   1.082       .  S
Co165       N183   2.078       .  S
Co165       N173   2.084       .  S
Co165       N205   2.066   1_545  S
Co165       N181   2.082   1_545  S
Co165      Cl209   2.430       .  S
N166        C204   1.337       .  A
N166        N173   1.318       .  A
N166       Co167   2.071   1_545  S
Co167       N170   2.070   1_565  S
Co167       N187   2.069       .  S
Co167       N174   2.070       .  S
Co167      Cl209   2.478   1_565  S
C168        N206   1.344       .  A
C168        C524   1.470       .  S
N169        N176   1.323       .  A
N169        N199   1.324       .  A
N169       Co202   2.080   1_545  S
N170        N188   1.319       .  A
N170        N206   1.321       .  A
N171        C200   1.347       .  A
N171        N181   1.323       .  A
H172        C197   1.082       .  S
N173        N194   1.325       .  A
N174        N192   1.317       .  A
N174        N179   1.323       .  A
C175        N179   1.346       .  A
C175        C203   1.461       .  S
C175        C508   1.471       .  S
N176        C191   1.346       .  A
N176       Co198   2.107       .  S
C177        N205   1.333       .  A
C177        C180   1.454       .  S
C177        H211   1.082       .  S
C180        N201   1.357       .  A
C180        C346   1.482       .  S
N181        N187   1.318       .  A
N182        C208   1.349       .  A
N182        N184   1.322       .  A
N182       Co198   2.111   1_565  S
N183        C197   1.338       .  A
N184        N212   1.318       .  A
N184       Co202   2.068       .  S
H185        C208   1.081       .  S
H186        C203   1.081       .  S
N188       Co202   2.091   1_545  S
N189        N201   1.330       .  A
N189        N205   1.321       .  A
N189       Co198   2.110   1_565  S
C190        N194   1.352       .  A
C190        C204   1.450       .  S
C190        C632   1.466       .  S
C191        C210   1.465       .  S
C191        H195   1.081       .  S
N192        C203   1.342       .  A
N192       Co202   2.086       .  S
C196        N212   1.344       .  A
C196        C208   1.470       .  S
C196        C328   1.483       .  S
Co198      Cl209   2.474       .  S
N199        C210   1.347       .  A
C200        C616   1.468       .  S
Co202      Cl209   2.429   1_565  S
C210        C362   1.482       .  S
C213        N231   1.349       .  A
C213        C250   1.460       .  S
C213        C742   1.479       .  S
N214        N231   1.326       .  A
N214        N236   1.319       .  A
N214       Co251   2.090       .  S
C215        N240   1.352       .  A
C215        C253   1.473       .  S
C215        H260   1.082       .  S
H216        C257   1.081       .  S
C217        N241   1.332       .  A
C217        C221   1.456       .  S
C217        H246   1.080       .  S
Co218       N236   2.089       .  S
Co218       N226   2.069       .  S
Co218       N258   2.086       .  S
Co218       N234   2.074       .  S
Co218      Cl262   2.423       .  S
N219        C257   1.348       .  A
N219        N226   1.322       .  A
N219       Co220   2.111   1_455  S
Co220       N223   2.114       .  S
Co220       N240   2.122   1_655  S
Co220       N227   2.123       .  S
Co220      Cl262   2.487   1_655  S
C221        N259   1.358       .  A
C221        C434   1.485       .  S
N222        N229   1.318       .  A
N222        N252   1.325       .  A
N222       Co255   2.078       .  S
N223        N241   1.320       .  A
N223        N259   1.331       .  A
N224        C253   1.344       .  A
N224        N234   1.321       .  A
H225        C250   1.081       .  S
N226        N247   1.319       .  A
N227        N245   1.322       .  A
N227        N232   1.333       .  A
C228        N232   1.361       .  A
C228        C256   1.455       .  S
C228        C364   1.491       .  S
N229        C244   1.344       .  A
N229       Co251   2.092   1_655  S
C230        N258   1.340       .  A
C230        C233   1.461       .  S
C230        H264   1.080       .  S
C233        N254   1.350       .  A
C233        C724   1.481       .  S
N234        N240   1.323       .  A
N235        C261   1.348       .  A
N235        N237   1.318       .  A
N235       Co251   2.093   1_655  S
N236        C250   1.343       .  A
N237        N265   1.322       .  A
N237       Co255   2.079       .  S
H238        C261   1.081       .  S
H239        C256   1.080       .  S
N241       Co255   2.063       .  S
N242        N254   1.327       .  A
N242        N258   1.318       .  A
N242       Co251   2.086       .  S
C243        N247   1.344       .  A
C243        C257   1.469       .  S
C243        C454   1.481       .  S
C244        C263   1.458       .  S
C244        H248   1.082       .  S
N245        C256   1.332       .  A
N245       Co255   2.068       .  S
C249        N265   1.345       .  A
C249        C261   1.465       .  S
C249        C580   1.474       .  S
Co251      Cl262   2.482       .  S
N252        C263   1.348       .  A
C253        C382   1.489       .  S
Co255      Cl262   2.421   1_655  S
C263        C598   1.476       .  S
C266        N284   1.356       .  A
C266        C303   1.456       .  S
C266        C418   1.484       .  S
N267        N284   1.330       .  A
N267        N289   1.322       .  A
N267       Co304   2.108   1_455  S
C268        N293   1.348       .  A
C268        C306   1.464       .  S
C268        H313   1.081       .  S
H269        C310   1.081       .  S
C270        N294   1.336       .  A
C270        C274   1.449       .  S
C270        H299   1.081       .  S
Co271       N289   2.071       .  S
Co271       N279   2.085       .  S
Co271       N311   2.069       .  S
Co271       N287   2.079       .  S
Co271      Cl315   2.424   1_455  S
N272        C310   1.346       .  A
N272        N279   1.318       .  A
N272       Co273   2.090   1_455  S
Co273       N276   2.107       .  S
Co273       N293   2.104   1_655  S
Co273       N280   2.096       .  S
Co273      Cl315   2.477       .  S
C274        N312   1.355       .  A
C274        C560   1.474       .  S
N275        N282   1.321       .  A
N275        N305   1.318       .  A
N275       Co308   2.068       .  S
N276        N294   1.319       .  A
N276        N312   1.332       .  A
N277        C306   1.349       .  A
N277        N287   1.325       .  A
H278        C303   1.081       .  S
N279        N300   1.324       .  A
N280        N298   1.319       .  A
N280        N285   1.329       .  A
C281        N285   1.352       .  A
C281        C309   1.450       .  S
C281        C544   1.471       .  S
N282        C297   1.348       .  A
N282       Co304   2.104       .  S
C283        N311   1.332       .  A
C283        C286   1.456       .  S
C283        H317   1.081       .  S
C286        N307   1.357       .  A
C286        C344   1.486       .  S
N287        N293   1.319       .  A
N288        C314   1.348       .  A
N288        N290   1.323       .  A
N288       Co304   2.109       .  S
N289        C303   1.333       .  A
N290        N318   1.321       .  A
N290       Co308   2.074       .  S
H291        C314   1.082       .  S
H292        C309   1.081       .  S
N294       Co308   2.070       .  S
N295        N307   1.330       .  A
N295        N311   1.321       .  A
N295       Co304   2.109   1_455  S
C296        N300   1.348       .  A
C296        C310   1.463       .  S
C296        C706   1.478       .  S
C297        C316   1.468       .  S
C297        H301   1.082       .  S
N298        C309   1.337       .  A
N298       Co308   2.072       .  S
C302        N318   1.345       .  A
C302        C314   1.468       .  S
C302        C326   1.481       .  S
Co304      Cl315   2.479       .  S
N305        C316   1.344       .  A
C306        C686   1.487       .  S
Co308      Cl315   2.427       .  S
C316        C398   1.479       .  S
C319        C327   1.486       .  S
C319        C320   1.406       .  A
C319        C324   1.404       .  A
C320        H329   1.083       .  S
C320        C321   1.398       .  A
C321        H330   1.082       .  S
C321        C322   1.405       .  A
C322        C325   1.491       .  S
C322        C323   1.408       .  A
C323        H331   1.083       .  S
C323        C324   1.401       .  A
C324        H332   1.083       .  S
C325        H333   1.087       .  S
C325        C326   1.353       .  D
C326        H334   1.084       .  S
C327        H335   1.086       .  S
C327        C328   1.352       .  D
C328        H336   1.083       .  S
C337        C345   1.488       .  S
C337        C338   1.408       .  A
C337        C342   1.404       .  A
C338        H347   1.082       .  S
C338        C339   1.401       .  A
C339        H348   1.082       .  S
C339        C340   1.405       .  A
C340        C343   1.488       .  S
C340        C341   1.407       .  A
C341        H349   1.082       .  S
C341        C342   1.398       .  A
C342        H350   1.082       .  S
C343        H351   1.082       .  S
C343        C344   1.353       .  D
C344        H352   1.082       .  S
C345        H353   1.082       .  S
C345        C346   1.352       .  D
C346        H354   1.082       .  S
C355        C363   1.492       .  S
C355        C356   1.407       .  A
C355        C360   1.406       .  A
C356        H365   1.084       .  S
C356        C357   1.398       .  A
C357        H366   1.080       .  S
C357        C358   1.404       .  A
C358        C361   1.493       .  S
C358        C359   1.409       .  A
C359        H367   1.084       .  S
C359        C360   1.405       .  A
C360        H368   1.081       .  S
C361        H369   1.088       .  S
C361        C362   1.352       .  D
C362        H370   1.085       .  S
C363        H371   1.083       .  S
C363        C364   1.355       .  D
C364        H372   1.084       .  S
C373        C381   1.495       .  S
C373        C374   1.409       .  A
C373        C378   1.405       .  A
C374        H383   1.083       .  S
C374        C375   1.403       .  A
C375        H384   1.081       .  S
C375        C376   1.406       .  A
C376        C379   1.497       .  S
C376        C377   1.409       .  A
C377        H385   1.083       .  S
C377        C378   1.403       .  A
C378        H386   1.082       .  S
C379        H387   1.083       .  S
C379        C380   1.355       .  D
C380        H388   1.082       .  S
C381        H389   1.087       .  S
C381        C382   1.356       .  D
C382        H390   1.084       .  S
C391        C399   1.484       .  S
C391        C392   1.407       .  A
C391        C396   1.403       .  A
C392        H401   1.082       .  S
C392        C393   1.399       .  A
C393        H402   1.083       .  S
C393        C394   1.404       .  A
C394        C397   1.484       .  S
C394        C395   1.406       .  A
C395        H403   1.082       .  S
C395        C396   1.398       .  A
C396        H404   1.082       .  S
C397        H405   1.086       .  S
C397        C398   1.351       .  D
C398        H406   1.084       .  S
C399        H407   1.084       .  S
C399        C400   1.352       .  D
C400        H408   1.084       .  S
C409        C417   1.488       .  S
C409        C410   1.407       .  A
C409        C414   1.405       .  A
C410        H419   1.084       .  S
C410        C411   1.398       .  A
C411        H420   1.081       .  S
C411        C412   1.404       .  A
C412        C415   1.488       .  S
C412        C413   1.408       .  A
C413        H421   1.083       .  S
C413        C414   1.401       .  A
C414        H422   1.081       .  S
C415        H423   1.086       .  S
C415        C416   1.353       .  D
C416        H424   1.083       .  S
C417        H425   1.086       .  S
C417        C418   1.351       .  D
C418        H426   1.085       .  S
C427        C435   1.487       .  S
C427        C428   1.408       .  A
C427        C432   1.404       .  A
C428        H437   1.085       .  S
C428        C429   1.402       .  A
C429        H438   1.081       .  S
C429        C430   1.404       .  A
C430        C433   1.487       .  S
C430        C431   1.406       .  A
C431        H439   1.086       .  S
C431        C432   1.397       .  A
C432        H440   1.080       .  S
C433        H441   1.087       .  S
C433        C434   1.351       .  D
C434        H442   1.087       .  S
C435        H443   1.087       .  S
C435        C436   1.351       .  D
C436        H444   1.085       .  S
C445        C453   1.489       .  S
C445        C446   1.404       .  A
C445        C450   1.408       .  A
C446        H455   1.081       .  S
C446        C447   1.399       .  A
C447        H456   1.083       .  S
C447        C448   1.407       .  A
C448        C451   1.487       .  S
C448        C449   1.404       .  A
C449        H457   1.082       .  S
C449        C450   1.401       .  A
C450        H458   1.082       .  S
C451        H459   1.087       .  S
C451        C452   1.353       .  D
C452        H460   1.084       .  S
C453        H461   1.086       .  S
C453        C454   1.353       .  D
C454        H462   1.083       .  S
C463        C471   1.487       .  S
C463        C464   1.403       .  A
C463        C468   1.408       .  A
C464        H473   1.081       .  S
C464        C465   1.399       .  A
C465        H474   1.083       .  S
C465        C466   1.408       .  A
C466        C469   1.487       .  S
C466        C467   1.403       .  A
C467        H475   1.079       .  S
C467        C468   1.399       .  A
C468        H476   1.083       .  S
C469        H477   1.085       .  S
C469        C470   1.345       .  D
C470        H478   1.084       .  S
C471        H479   1.086       .  S
C471        C472   1.342       .  D
C472        H480   1.084       .  S
C481        C489   1.486       .  S
C481        C482   1.404       .  A
C481        C486   1.406       .  A
C482        H491   1.084       .  S
C482        C483   1.400       .  A
C483        H492   1.083       .  S
C483        C484   1.405       .  A
C484        C487   1.491       .  S
C484        C485   1.409       .  A
C485        H493   1.080       .  S
C485        C486   1.399       .  A
C486        H494   1.082       .  S
C487        H495   1.084       .  S
C487        C488   1.348       .  D
C488        H496   1.081       .  S
C489        H497   1.085       .  S
C489        C490   1.348       .  D
C490        H498   1.085       .  S
C499        C507   1.485       .  S
C499        C500   1.404       .  A
C499        C504   1.408       .  A
C500        H509   1.083       .  S
C500        C501   1.397       .  A
C501        H510   1.082       .  S
C501        C502   1.406       .  A
C502        C505   1.480       .  S
C502        C503   1.401       .  A
C503        H511   1.084       .  S
C503        C504   1.396       .  A
C504        H512   1.080       .  S
C505        H513   1.087       .  S
C505        C506   1.343       .  D
C506        H514   1.085       .  S
C507        H515   1.084       .  S
C507        C508   1.344       .  D
C508        H516   1.082       .  S
C517        C525   1.482       .  S
C517        C518   1.401       .  A
C517        C522   1.405       .  A
C518        H527   1.084       .  S
C518        C519   1.398       .  A
C519        H528   1.080       .  S
C519        C520   1.410       .  A
C520        C523   1.487       .  S
C520        C521   1.403       .  A
C521        H529   1.084       .  S
C521        C522   1.395       .  A
C522        H530   1.082       .  S
C523        H531   1.087       .  S
C523        C524   1.343       .  D
C524        H532   1.082       .  S
C525        H533   1.090       .  S
C525        C526   1.342       .  D
C526        H534   1.088       .  S
C535        C543   1.493       .  S
C535        C536   1.407       .  A
C535        C540   1.408       .  A
C536        H545   1.082       .  S
C536        C537   1.407       .  A
C537        H546   1.083       .  S
C537        C538   1.408       .  A
C538        C541   1.484       .  S
C538        C539   1.401       .  A
C539        H547   1.083       .  S
C539        C540   1.392       .  A
C540        H548   1.082       .  S
C541        H549   1.088       .  S
C541        C542   1.347       .  D
C542        H550   1.084       .  S
C543        H551   1.086       .  S
C543        C544   1.347       .  D
C544        H552   1.083       .  S
C553        C561   1.496       .  S
C553        C554   1.404       .  A
C553        C558   1.412       .  A
C554        H563   1.081       .  S
C554        C555   1.395       .  A
C555        H564   1.085       .  S
C555        C556   1.405       .  A
C556        C559   1.493       .  S
C556        C557   1.406       .  A
C557        H565   1.081       .  S
C557        C558   1.408       .  A
C558        H566   1.082       .  S
C559        H567   1.086       .  S
C559        C560   1.346       .  D
C560        H568   1.086       .  S
C561        H569   1.082       .  S
C561        C562   1.350       .  D
C562        H570   1.081       .  S
C571        C579   1.494       .  S
C571        C572   1.406       .  A
C571        C576   1.409       .  A
C572        H581   1.083       .  S
C572        C573   1.404       .  A
C573        H582   1.082       .  S
C573        C574   1.407       .  A
C574        C577   1.484       .  S
C574        C575   1.401       .  A
C575        H583   1.083       .  S
C575        C576   1.396       .  A
C576        H584   1.081       .  S
C577        H585   1.089       .  S
C577        C578   1.346       .  D
C578        H586   1.086       .  S
C579        H587   1.087       .  S
C579        C580   1.347       .  D
C580        H588   1.083       .  S
C589        C597   1.487       .  S
C589        C590   1.407       .  A
C589        C594   1.405       .  A
C590        H599   1.083       .  S
C590        C591   1.404       .  A
C591        H600   1.083       .  S
C591        C592   1.405       .  A
C592        C595   1.482       .  S
C592        C593   1.403       .  A
C593        H601   1.084       .  S
C593        C594   1.397       .  A
C594        H602   1.082       .  S
C595        H603   1.086       .  S
C595        C596   1.349       .  D
C596        H604   1.086       .  S
C597        H605   1.088       .  S
C597        C598   1.347       .  D
C598        H606   1.087       .  S
C607        C615   1.480       .  S
C607        C608   1.404       .  A
C607        C612   1.406       .  A
C608        H617   1.087       .  S
C608        C609   1.397       .  A
C609        H618   1.080       .  S
C609        C610   1.406       .  A
C610        C613   1.477       .  S
C610        C611   1.400       .  A
C611        H619   1.087       .  S
C611        C612   1.394       .  A
C612        H620   1.079       .  S
C613        H621   1.089       .  S
C613        C614   1.340       .  D
C614        H622   1.087       .  S
C615        H623   1.088       .  S
C615        C616   1.345       .  D
C616        H624   1.085       .  S
C625        C633   1.480       .  S
C625        C626   1.401       .  A
C625        C630   1.407       .  A
C626        H635   1.083       .  S
C626        C627   1.394       .  A
C627        H636   1.079       .  S
C627        C628   1.409       .  A
C628        C631   1.484       .  S
C628        C629   1.403       .  A
C629        H637   1.082       .  S
C629        C630   1.396       .  A
C630        H638   1.080       .  S
C631        H639   1.087       .  S
C631        C632   1.342       .  D
C632        H640   1.082       .  S
C633        H641   1.084       .  S
C633        C634   1.343       .  D
C634        H642   1.082       .  S
C643        C651   1.483       .  S
C643        C644   1.401       .  A
C643        C648   1.409       .  A
C644        H653   1.083       .  S
C644        C645   1.398       .  A
C645        H654   1.081       .  S
C645        C646   1.410       .  A
C646        C649   1.482       .  S
C646        C647   1.399       .  A
C647        H655   1.083       .  S
C647        C648   1.395       .  A
C648        H656   1.082       .  S
C649        H657   1.086       .  S
C649        C650   1.340       .  D
C650        H658   1.085       .  S
C651        H659   1.086       .  S
C651        C652   1.342       .  D
C652        H660   1.083       .  S
C661        C669   1.483       .  S
C661        C662   1.402       .  A
C661        C666   1.408       .  A
C662        H671   1.083       .  S
C662        C663   1.394       .  A
C663        H672   1.084       .  S
C663        C664   1.403       .  A
C664        C667   1.483       .  S
C664        C665   1.408       .  A
C665        H673   1.079       .  S
C665        C666   1.396       .  A
C666        H674   1.081       .  S
C667        H675   1.085       .  S
C667        C668   1.344       .  D
C668        H676   1.082       .  S
C669        H677   1.087       .  S
C669        C670   1.343       .  D
C670        H678   1.084       .  S
C679        C687   1.494       .  S
C679        C680   1.410       .  A
C679        C684   1.404       .  A
C680        H689   1.082       .  S
C680        C681   1.409       .  A
C681        H690   1.080       .  S
C681        C682   1.411       .  A
C682        C685   1.496       .  S
C682        C683   1.404       .  A
C683        H691   1.084       .  S
C683        C684   1.397       .  A
C684        H692   1.082       .  S
C685        H693   1.087       .  S
C685        C686   1.350       .  D
C686        H694   1.084       .  S
C687        H695   1.085       .  S
C687        C688   1.351       .  D
C688        H696   1.083       .  S
C697        C705   1.493       .  S
C697        C698   1.407       .  A
C697        C702   1.404       .  A
C698        H707   1.083       .  S
C698        C699   1.407       .  A
C699        H708   1.081       .  S
C699        C700   1.409       .  A
C700        C703   1.495       .  S
C700        C701   1.406       .  A
C701        H709   1.083       .  S
C701        C702   1.396       .  A
C702        H710   1.083       .  S
C703        H711   1.086       .  S
C703        C704   1.353       .  D
C704        H712   1.083       .  S
C705        H713   1.086       .  S
C705        C706   1.348       .  D
C706        H714   1.085       .  S
C715        C723   1.489       .  S
C715        C716   1.402       .  A
C715        C720   1.410       .  A
C716        H725   1.084       .  S
C716        C717   1.395       .  A
C717        H726   1.082       .  S
C717        C718   1.404       .  A
C718        C721   1.488       .  S
C718        C719   1.408       .  A
C719        H727   1.081       .  S
C719        C720   1.405       .  A
C720        H728   1.081       .  S
C721        H729   1.086       .  S
C721        C722   1.349       .  D
C722        H730   1.084       .  S
C723        H731   1.085       .  S
C723        C724   1.347       .  D
C724        H732   1.084       .  S
C733        C741   1.491       .  S
C733        C734   1.408       .  A
C733        C738   1.405       .  A
C734        H743   1.083       .  S
C734        C735   1.406       .  A
C735        H744   1.082       .  S
C735        C736   1.405       .  A
C736        C739   1.486       .  S
C736        C737   1.405       .  A
C737        H745   1.084       .  S
C737        C738   1.397       .  A
C738        H746   1.082       .  S
C739        H747   1.088       .  S
C739        C740   1.353       .  D
C740        H748   1.086       .  S
C741        H749   1.086       .  S
C741        C742   1.349       .  D
C742        H750   1.084       .  S
