geometry optimzed in LAMMPS
_audit_creation_date              2020-11-30 
_audit_creation_method            'lammps2cif' 
_symmetry_space_group_name_H-M    'P1' 
_symmetry_Int_Tables_number       1 
_symmetry_cell_setting            triclinic 
loop_ 
_symmetry_equiv_pos_as_xyz 
  x,y,z 
_cell_length_a                    50.53183885 
_cell_length_b                    50.62824948998757 
_cell_length_c                    55.862500729544664 
_cell_angle_alpha                 90.2725321253403 
_cell_angle_beta                  89.7939190524586 
_cell_angle_gamma                 90.00322071583673 
loop_ 
_atom_site_label 
_atom_site_type_symbol 
_atom_site_fract_x 
_atom_site_fract_y 
_atom_site_fract_z 
_atom_site_charge 
C1          C  0.00180300  0.89034341  0.63885119     0.04500
C2          C  0.00031477  0.86318976  0.64405010    -0.11700
C3          C  0.02152326  0.85011677  0.65501847     0.02000
C4          C  0.04421090  0.86444640  0.66106208    -0.10200
C5          C  0.04636163  0.89137856  0.65588745     0.04500
C6          C  0.02508462  0.90431907  0.64469557    -0.09600
H7          H  0.98257464  0.85222321  0.63963378     0.10100
H8          H  0.06055135  0.85447165  0.66969442     0.07600
H9          H  0.02668738  0.92512860  0.64052190     0.07400
C10         C  0.04223416  0.77880058  0.66377525     0.04500
C11         C  0.01935300  0.76823944  0.67430224    -0.11700
C12         C  0.99675865  0.78401454  0.67769166     0.02000
C13         C  0.99746313  0.81069607  0.67096221    -0.10200
C14         C  0.02023051  0.82154430  0.66055076     0.04500
C15         C  0.04242926  0.80534525  0.65675365    -0.09600
H16         H  0.01904958  0.74765623  0.67952754     0.10100
H17         H  0.98057821  0.82328340  0.67464587     0.07600
H18         H  0.06019735  0.81357235  0.64883475     0.07400
C19         C  0.54931085  0.86476258  0.66344547     0.04500
C20         C  0.52683146  0.88102652  0.66487732    -0.11700
C21         C  0.50280837  0.87098289  0.67365580     0.02000
C22         C  0.50148079  0.84462039  0.68122449    -0.10200
C23         C  0.52372575  0.82813468  0.67972910     0.04500
C24         C  0.54746527  0.83832840  0.67055658    -0.09600
H25         H  0.52799208  0.90137957  0.65904490     0.10100
H26         H  0.48309145  0.83705896  0.68850647     0.07600
H27         H  0.56453242  0.82554644  0.66851860     0.07400
C28         C  0.49904458  0.75795048  0.68818139     0.04500
C29         C  0.50005511  0.78474778  0.68193228    -0.11700
C30         C  0.52223493  0.80020457  0.68742247     0.02000
C31         C  0.54347920  0.78864568  0.69953913    -0.10200
C32         C  0.54306474  0.76184663  0.70568288     0.04500
C33         C  0.52073217  0.74646577  0.69996497    -0.09600
H34         H  0.48358275  0.79347307  0.67244144     0.10100
H35         H  0.56080302  0.80039973  0.70368879     0.07600
H36         H  0.52041137  0.72563822  0.70432457     0.07400
O37         O  0.24940217  0.95615558  0.66942651    -0.56500
C38         C  0.32983653  0.96880846  0.67702874     0.76200
O39         O  0.26833857  0.03342418  0.65323754    -0.57600
C40         C  0.22910308  0.96598041  0.67945080     0.76100
C41         C  0.28646719  0.02133000  0.72320698     0.78500
Cd42       Cd  0.27898119  0.99437755  0.67822160     1.37500
O43         O  0.30921527  0.95677393  0.68395448    -0.56500
O44         O  0.27686970  0.99829130  0.72174778    -0.55300
C45         C  0.27023743  0.02087422  0.63361027     0.78500
O46         O  0.29159859  0.03272705  0.70357609    -0.57600
O47         O  0.32662307  0.99225210  0.66997899    -0.56100
O48         O  0.23227866  0.98819390  0.68952977    -0.56100
O49         O  0.27703288  0.99691335  0.63493289    -0.55300
O50         O  0.22014799  0.66084353  0.65656158    -0.56500
C51         C  0.32050315  0.68001000  0.65236896     0.76200
O52         O  0.26821878  0.61765864  0.67408812    -0.57600
C53         C  0.21778706  0.68538546  0.65305081     0.76100
C54         C  0.26024695  0.63846415  0.60211407     0.78500
Cd55       Cd  0.26775214  0.65841157  0.64956650     1.37500
O56         O  0.30030005  0.69479274  0.65382206    -0.56500
O57         O  0.26468620  0.66254219  0.60659730    -0.55300
C58         C  0.26855087  0.63025093  0.69378603     0.78500
O59         O  0.26116013  0.62279537  0.61973652    -0.57600
O60         O  0.31618817  0.65573896  0.64851779    -0.56100
O61         O  0.23896046  0.69793097  0.64862275    -0.56100
O62         O  0.26782815  0.65519313  0.69251620    -0.55300
O63         O  0.80302219  0.94684977  0.60426260    -0.56500
C64         C  0.72211226  0.95026655  0.61954325     0.76200
O65         O  0.76976738  0.01670149  0.64409507    -0.57600
C66         C  0.82269098  0.96240351  0.60467606     0.76100
C67         C  0.75738067  0.01033336  0.57146522     0.78500
Cd68       Cd  0.76969121  0.98098176  0.61382171     1.37500
O69         O  0.74446985  0.93900151  0.61809192    -0.56500
O70         O  0.75834489  0.02153396  0.59178304    -0.55300
C71         C  0.77346429  0.00149361  0.66172297     0.78500
O72         O  0.76231687  0.98583029  0.57097929    -0.57600
O73         O  0.72217032  0.97514987  0.61794681    -0.56100
O74         O  0.81757388  0.98654572  0.60841234    -0.56100
O75         O  0.77659432  0.97728009  0.65685747    -0.55300
O76         O  0.74527169  0.71164180  0.73370098    -0.56500
C77         C  0.82759811  0.70134058  0.73149307     0.76200
O78         O  0.77885234  0.63528900  0.75966143    -0.57600
C79         C  0.72557706  0.69700373  0.73844764     0.76100
C80         C  0.77519903  0.65078582  0.68771262     0.78500
Cd81       Cd  0.77768775  0.67477868  0.73428279     1.37500
O82         O  0.80642189  0.71429240  0.73489244    -0.56500
O83         O  0.76986727  0.67487527  0.69128468    -0.55300
C84         C  0.78132227  0.64805886  0.77910456     0.78500
O85         O  0.78116934  0.63734843  0.70599141    -0.57600
O86         O  0.82527636  0.67656497  0.72977866    -0.56100
O87         O  0.73049221  0.67280988  0.74173919    -0.56100
O88         O  0.78291550  0.67293046  0.77745871    -0.55300
C89         C  0.45717677  0.78866779  0.90363350     0.04500
C90         C  0.48484453  0.78963759  0.90093020    -0.11700
C91         C  0.49905830  0.81301614  0.90520467     0.02000
C92         C  0.48488480  0.83618482  0.91033884    -0.10200
C93         C  0.45716648  0.83629405  0.91124286     0.04500
C94         C  0.44336357  0.81233018  0.90841912    -0.09600
H95         H  0.49542309  0.77198062  0.89550298     0.10100
H96         H  0.49542485  0.85442121  0.91426652     0.07600
H97         H  0.42200936  0.81217129  0.90999297     0.07400
C98         C  0.57062138  0.83625278  0.90034275     0.04500
C99         C  0.54295502  0.83549375  0.89851811    -0.11700
C100        C  0.52858212  0.81299762  0.90540643     0.02000
C101        C  0.54257751  0.79080399  0.91362297    -0.10200
C102        C  0.57031228  0.79100212  0.91518018     0.04500
C103        C  0.58420250  0.81387412  0.90859331    -0.09600
H104        H  0.53258932  0.85285164  0.89206854     0.10100
H105        H  0.53191607  0.77329264  0.91906078     0.07600
H106        H  0.60558537  0.81435459  0.91004289     0.07400
O107        O  0.64869812  0.03209347  0.87209865    -0.56500
C108        C  0.66636194  0.11249357  0.87240201     0.76200
O109        O  0.72607072  0.06427889  0.89861029    -0.57600
C110        C  0.66123439  0.01040658  0.87305798     0.76100
C111        C  0.71551844  0.05335427  0.82574877     0.78500
Cd112      Cd  0.68884233  0.05974521  0.87078029     1.37500
O113        O  0.65197605  0.09238504  0.86863750    -0.56500
O114        O  0.69113850  0.05879981  0.82727546    -0.55300
C115        C  0.71252020  0.05857614  0.91702468     0.78500
O116        O  0.72804874  0.05183660  0.84528726    -0.57600
O117        O  0.69088183  0.10812829  0.87456432    -0.56100
O118        O  0.68620594  0.01187555  0.87233772    -0.56100
O119        O  0.68851445  0.05264432  0.91367174    -0.55300
O120        O  0.34362064  0.60716548  0.90786238    -0.56500
C121        C  0.37291603  0.51109204  0.90123034     0.76200
O122        O  0.30211915  0.54997313  0.92399364    -0.57600
C123        C  0.36719154  0.61063653  0.90092905     0.76100
C124        C  0.31552130  0.56220801  0.85443119     0.78500
Cd125      Cd  0.34219351  0.55918353  0.89984980     1.37500
O126        O  0.38392731  0.53356445  0.90112496    -0.56500
O127        O  0.33854211  0.55272312  0.85630886    -0.55300
C128        C  0.31335506  0.55358206  0.94397693     0.78500
O129        O  0.30437313  0.56919759  0.87374362    -0.57600
O130        O  0.34788146  0.51104880  0.90057025    -0.56100
O131        O  0.37954196  0.59012476  0.89424445    -0.56100
O132        O  0.33761721  0.55974439  0.94324361    -0.55300
O133        O  0.64398601  0.59724763  0.96096069    -0.56500
C134        C  0.66069423  0.51721665  0.96144775     0.76200
O135        O  0.72719237  0.57693448  0.95175787    -0.57600
C136        C  0.65655871  0.61892094  0.96153858     0.76100
C137        C  0.69687129  0.56802316  0.02039745     0.78500
Cd138      Cd  0.68295554  0.56920127  0.97015856     1.37500
O139        O  0.64596057  0.53722805  0.96450861    -0.56500
O140        O  0.67378065  0.57355748  0.01332163    -0.55300
C141        C  0.71882028  0.57428227  0.93049481     0.78500
O142        O  0.71385917  0.56356718  0.00415388    -0.57600
O143        O  0.68532196  0.52131957  0.96296366    -0.56100
O144        O  0.68076910  0.61745742  0.96706089    -0.56100
O145        O  0.69461078  0.56858043  0.92817224    -0.55300
C146        C  0.47335286  0.33926513  0.91324480     0.04500
C147        C  0.45930543  0.31615453  0.91866743    -0.11700
C148        C  0.47282004  0.29252478  0.92329636     0.02000
C149        C  0.50054516  0.29206736  0.92221277    -0.10200
C150        C  0.51495569  0.31486162  0.91627937     0.04500
C151        C  0.50101962  0.33831540  0.91150779    -0.09600
H152        H  0.43791096  0.31675939  0.92006461     0.10100
H153        H  0.51081239  0.27385988  0.92619751     0.07600
H154        H  0.51158302  0.35604405  0.90632339     0.07400
C155        C  0.58622020  0.29069563  0.91004831     0.04500
C156        C  0.60028767  0.31383524  0.91617345    -0.11700
C157        C  0.58647226  0.33716749  0.92205176     0.02000
C158        C  0.55878309  0.33687313  0.92273082    -0.10200
C159        C  0.54443510  0.31440927  0.91594346     0.04500
C160        C  0.55842360  0.29156099  0.90922387    -0.09600
H161        H  0.62172155  0.31376150  0.91621678     0.10100
H162        H  0.54846497  0.35450534  0.92869172     0.07600
H163        H  0.54772581  0.27430467  0.90305825     0.07400
O164        O  0.39096820  0.03626936  0.94514183    -0.56500
C165        C  0.38025531  0.11866659  0.94406218     0.76200
O166        O  0.31996206  0.07012415  0.90793400    -0.57600
C167        C  0.37742683  0.01634621  0.93882130     0.76100
C168        C  0.32018540  0.06756083  0.98150900     0.78500
Cd169      Cd  0.35396868  0.06834488  0.93975610     1.37500
O170        O  0.39321205  0.09723897  0.94478453    -0.56500
O171        O  0.31090864  0.06962993  0.96057662    -0.55300
C172        C  0.33635842  0.07083398  0.89072543     0.78500
O173        O  0.34505212  0.06511286  0.98301486    -0.57600
O174        O  0.35546267  0.11650487  0.94190592    -0.56100
O175        O  0.35346168  0.02071925  0.93376346    -0.56100
O176        O  0.36057952  0.07117738  0.89638630    -0.55300
O177        O  0.27976927  0.49190871  0.16509790    -0.56500
C178        C  0.18043983  0.47660997  0.15002934     0.76200
O179        O  0.23304044  0.53758374  0.17792692    -0.57600
C180        C  0.28034546  0.46695359  0.16411229     0.76100
C181        C  0.24179533  0.51567152  0.10618383     0.78500
Cd182      Cd  0.23324903  0.49651048  0.15371548     1.37500
O183        O  0.19969053  0.46118530  0.15399639    -0.56500
O184        O  0.23728503  0.49165158  0.11072491    -0.55300
C185        C  0.22694730  0.52575992  0.19715087     0.78500
O186        O  0.24275436  0.53125483  0.12398790    -0.57600
O187        O  0.18597158  0.50080435  0.14753148    -0.56100
O188        O  0.25906739  0.45559071  0.15799352    -0.56100
O189        O  0.22369626  0.50104837  0.19572112    -0.55300
C190        C  0.50573800  0.26712629  0.15385605     0.04500
C191        C  0.48412071  0.24974750  0.15546222    -0.11700
C192        C  0.46038620  0.25800285  0.16620418     0.02000
C193        C  0.45861672  0.28351506  0.17604365    -0.10200
C194        C  0.47978341  0.30137368  0.17419544     0.04500
C195        C  0.50304667  0.29305166  0.16259429    -0.09600
H196        H  0.48590438  0.22958810  0.14910595     0.10100
H197        H  0.44047108  0.28944566  0.18493205     0.07600
H198        H  0.51922306  0.30681178  0.16018244     0.07400
C199        C  0.45134085  0.36888653  0.19002639     0.04500
C200        C  0.45327593  0.34238593  0.18278057    -0.11700
C201        C  0.47749833  0.32887930  0.18365034     0.02000
C202        C  0.49980074  0.34221188  0.19260067    -0.10200
C203        C  0.49851458  0.36899750  0.19927205     0.04500
C204        C  0.47401777  0.38210044  0.19829027    -0.09600
H205        H  0.43586165  0.33254654  0.17590345     0.10100
H206        H  0.51833292  0.33170163  0.19444956     0.07600
H207        H  0.47276293  0.40283752  0.20304075     0.07400
C208        C  0.95869758  0.28532083  0.14329260     0.04500
C209        C  0.95803148  0.31257454  0.14736368    -0.11700
C210        C  0.98073118  0.32613483  0.15486639     0.02000
C211        C  0.00453195  0.31213541  0.15728419    -0.10200
C212        C  0.00564910  0.28499852  0.15225131     0.04500
C213        C  0.98253747  0.27155171  0.14561778    -0.09600
H214        H  0.93954869  0.32307424  0.14505302     0.10100
H215        H  0.02227103  0.32224045  0.16312884     0.07600
H216        H  0.98303564  0.25042355  0.14243134     0.07400
C217        C  0.99915426  0.39868395  0.15936238     0.04500
C218        C  0.00051466  0.37147088  0.15467307    -0.11700
C219        C  0.97934833  0.35476022  0.16034099     0.02000
C220        C  0.95665640  0.36553373  0.17106556    -0.10200
C221        C  0.95462349  0.39269357  0.17539713     0.04500
C222        C  0.97601952  0.40929651  0.16967526    -0.09600
H223        H  0.01826712  0.36328260  0.14668684     0.10100
H224        H  0.94024004  0.35283846  0.17585978     0.07600
H225        H  0.97466094  0.43031340  0.17323432     0.07400
O226        O  0.20122621  0.20038053  0.16703355    -0.56500
C227        C  0.27946587  0.17838660  0.17098676     0.76200
O228        O  0.21358990  0.12644711  0.20310888    -0.57600
C229        C  0.17882734  0.18919756  0.16585122     0.76100
C230        C  0.22958838  0.12708219  0.12894040     0.78500
Cd231      Cd  0.22606806  0.15875328  0.17180952     1.37500
O232        O  0.25999578  0.19374707  0.16768804    -0.56500
O233        O  0.22609644  0.15181069  0.12851589    -0.55300
C234        C  0.21952514  0.14141703  0.22054528     0.78500
O235        O  0.22985458  0.11648270  0.14945551    -0.57600
O236        O  0.27392014  0.15445113  0.17498396    -0.56100
O237        O  0.17869025  0.16427713  0.16736709    -0.56100
O238        O  0.22832953  0.16402830  0.21525892    -0.55300
O239        O  0.76483795  0.20128476  0.13767925    -0.56500
C240        C  0.68507372  0.19376936  0.11706405     0.76200
O241        O  0.74068734  0.12716068  0.09587733    -0.57600
C242        C  0.78058706  0.20367660  0.12018941     0.76100
C243        C  0.74243588  0.13957670  0.16031323     0.78500
Cd244      Cd  0.73594402  0.16920591  0.11755399     1.37500
O245        O  0.70600296  0.20747861  0.11596939    -0.56500
O246        O  0.72162347  0.15266303  0.15626580    -0.55300
C247        C  0.73759687  0.13726780  0.07541368     0.78500
O248        O  0.75970653  0.13905380  0.14385421    -0.57600
O249        O  0.68804120  0.16901059  0.11808253    -0.56100
O250        O  0.77437613  0.19172435  0.10109913    -0.56100
O251        O  0.73392344  0.16196095  0.07478818    -0.55300
O252        O  0.69298563  0.44277358  0.23742515    -0.56500
C253        C  0.77420041  0.45675702  0.22614087     0.76200
O254        O  0.72468061  0.52047991  0.20745174    -0.57600
C255        C  0.67187905  0.45634109  0.23774284     0.76100
C256        C  0.72880865  0.50870864  0.27752279     0.78500
Cd257      Cd  0.72307402  0.48103467  0.23336758     1.37500
O258        O  0.75387820  0.44235446  0.22880139    -0.56500
O259        O  0.72978969  0.48372972  0.27669776    -0.55300
C260        C  0.71883446  0.50808908  0.18847456     0.78500
O261        O  0.72440819  0.52045163  0.25802355    -0.57600
O262        O  0.77046073  0.48136792  0.22751596    -0.56100
O263        O  0.67472696  0.48113011  0.23686827    -0.56100
O264        O  0.71470144  0.48354376  0.19058438    -0.55300
C265        C  0.02726800  0.82453657  0.40493825     0.04500
C266        C  0.04119771  0.84813394  0.40880011    -0.11700
C267        C  0.02762242  0.87191258  0.41278730     0.02000
C268        C  0.99990720  0.87193445  0.41341745    -0.10200
C269        C  0.98549127  0.84864671  0.40913010     0.04500
C270        C  0.99948121  0.82504482  0.40456377    -0.09600
H271        H  0.06264432  0.84793078  0.40904337     0.10100
H272        H  0.98969784  0.89021996  0.41747764     0.07600
H273        H  0.98886062  0.80683111  0.40127455     0.07400
C274        C  0.91371884  0.87191560  0.40605949     0.04500
C275        C  0.90044503  0.84974606  0.41520642    -0.11700
C276        C  0.91467645  0.82717549  0.42192168     0.02000
C277        C  0.94232568  0.82700142  0.41968551    -0.10200
C278        C  0.95600582  0.84885097  0.41049622     0.04500
C279        C  0.94140058  0.87118431  0.40355633    -0.09600
H280        H  0.87912981  0.85015812  0.41731145     0.10100
H281        H  0.95316843  0.80975328  0.42548361     0.07600
H282        H  0.95155384  0.88830665  0.39651394     0.07400
O283        O  0.10814032  0.62679483  0.40447357    -0.56500
C284        C  0.12582680  0.54570100  0.40148621     0.76200
O285        O  0.18578583  0.59862083  0.37346593    -0.57600
C286        C  0.12068852  0.64828097  0.40188178     0.76100
C287        C  0.17749761  0.59866482  0.44459112     0.78500
Cd288      Cd  0.14785308  0.59808766  0.40106730     1.37500
O289        O  0.11085417  0.56579120  0.40065586    -0.56500
O290        O  0.15270407  0.59501895  0.44457632    -0.55300
C291        C  0.17189085  0.59618938  0.35478536     0.78500
O292        O  0.18838321  0.60196397  0.42439654    -0.57600
O293        O  0.15040675  0.55017194  0.40220920    -0.56100
O294        O  0.14545502  0.64630555  0.39924569    -0.56100
O295        O  0.14706098  0.59567277  0.35773579    -0.55300
O296        O  0.86335535  0.56789930  0.46432923    -0.56500
C297        C  0.84431841  0.64871384  0.46432055     0.76200
O298        O  0.78206512  0.58928395  0.44827445    -0.57600
C299        C  0.85052568  0.54637710  0.46505269     0.76100
C300        C  0.80791217  0.59836315  0.51819259     0.78500
Cd301      Cd  0.82394531  0.59628372  0.46942982     1.37500
O302        O  0.85968444  0.62890570  0.46457638    -0.56500
O303        O  0.83182345  0.59611875  0.51178760    -0.55300
C304        C  0.79267001  0.59102439  0.42772971     0.78500
O305        O  0.79078542  0.59864233  0.50166679    -0.57600
O306        O  0.81985114  0.64395565  0.46644164    -0.56100
O307        O  0.82579450  0.54824530  0.46818092    -0.56100
O308        O  0.81705005  0.59668280  0.42703068    -0.55300
O309        O  0.84614376  0.07085648  0.37513190    -0.56500
C310        C  0.83689785  0.15234457  0.38568264     0.76200
O311        O  0.77524933  0.11306860  0.34729946    -0.57600
C312        C  0.83193474  0.05121888  0.38096360     0.76100
C313        C  0.77684182  0.09917411  0.41962443     0.78500
Cd314      Cd  0.80910213  0.10330193  0.37776204     1.37500
O315        O  0.84869469  0.13029446  0.38700540    -0.56500
O316        O  0.76733264  0.09395428  0.39917375    -0.55300
C317        C  0.78924732  0.10522538  0.32981095     0.78500
O318        O  0.80024864  0.10802411  0.42009733    -0.57600
O319        O  0.81265727  0.15149320  0.38012318    -0.56100
O320        O  0.80786756  0.05606181  0.38525320    -0.56100
O321        O  0.81225589  0.09709270  0.33461531    -0.55300
C322        C  0.04811432  0.36454945  0.42117678     0.04500
C323        C  0.06093867  0.34082248  0.42704845    -0.11700
C324        C  0.04612493  0.31814695  0.43264984     0.02000
C325        C  0.01837349  0.31945524  0.43268159    -0.10200
C326        C  0.00519389  0.34286943  0.42663389     0.04500
C327        C  0.02032937  0.36521190  0.42079762    -0.09600
H328        H  0.08234448  0.33974598  0.42652717     0.10100
H329        H  0.00712746  0.30215010  0.43777779     0.07600
H330        H  0.01047150  0.38336320  0.41590489     0.07400
C331        C  0.93266065  0.32360679  0.41871677     0.04500
C332        C  0.96046938  0.32223432  0.41935353    -0.11700
C333        C  0.97572799  0.34416816  0.42635367     0.02000
C334        C  0.96269395  0.36757556  0.43297860    -0.10200
C335        C  0.93507962  0.36951356  0.43209502     0.04500
C336        C  0.92011721  0.34746403  0.42505502    -0.09600
H337        H  0.97021989  0.30394513  0.41452007     0.10100
H338        H  0.97395433  0.38442077  0.43925819     0.07600
H339        H  0.89876563  0.34905173  0.42408617     0.07400
O340        O  0.12020131  0.11980530  0.44737715    -0.56500
C341        C  0.12922257  0.04142390  0.43720980     0.76200
O342        O  0.19323338  0.09566662  0.40872187    -0.57600
C343        C  0.13350231  0.14098109  0.44811424     0.76100
C344        C  0.19062040  0.08315683  0.48151933     0.78500
Cd345      Cd  0.15832653  0.09045304  0.44000662     1.37500
O346        O  0.11821907  0.06303516  0.44282150    -0.56500
O347        O  0.16595824  0.08717350  0.48275184    -0.55300
C348        C  0.17683077  0.09840928  0.39181011     0.78500
O349        O  0.20071600  0.08285524  0.46074058    -0.57600
O350        O  0.15388153  0.04241522  0.43326820    -0.56100
O351        O  0.15830208  0.13858952  0.44571927    -0.56100
O352        O  0.15264704  0.09675161  0.39742298    -0.55300
C353        C  0.09184189  0.26597001  0.45839848    -0.26900
C354        C  0.08330321  0.24323067  0.44612528     0.06800
C355        C  0.06254132  0.24539851  0.42954704     0.26400
C356        C  0.05067493  0.26980231  0.42535707    -0.11300
C357        C  0.05927640  0.29257932  0.43746563    -0.25300
C358        C  0.07998315  0.29049090  0.45411439     0.37200
C359        C  0.09656453  0.21744808  0.44979736     0.06800
F360        F  0.05430382  0.22407002  0.41677313    -0.19100
H361        H  0.03493869  0.27100972  0.41227116     0.16600
F362        F  0.08828049  0.31197656  0.46662340    -0.22800
H363        H  0.10762993  0.26468715  0.47141895     0.18400
C364        C  0.12416997  0.21509261  0.44745440     0.26400
C365        C  0.13611992  0.19020976  0.44791376    -0.11300
C366        C  0.12083381  0.16721989  0.45070397    -0.25300
C367        C  0.09336151  0.16973078  0.45440530     0.37300
C368        C  0.08143244  0.19463750  0.45394990    -0.27000
F369        F  0.13943755  0.23665962  0.44330069    -0.19100
H370        H  0.15731392  0.18890052  0.44515132     0.16600
F371        F  0.07788176  0.14816218  0.45787176    -0.22800
H372        H  0.06018545  0.19608061  0.45628978     0.18400
C373        C  0.91092374  0.25923709  0.38933887    -0.26900
C374        C  0.88878622  0.25251642  0.40324335     0.06800
C375        C  0.88023432  0.26996226  0.42132378     0.26400
C376        C  0.89420777  0.29330080  0.42585331    -0.11300
C377        C  0.91681311  0.29980964  0.41233780    -0.25300
C378        C  0.92466901  0.28274495  0.39358917     0.37200
C379        C  0.87528851  0.22693969  0.39913675     0.06800
F380        F  0.85905059  0.26390917  0.43526318    -0.19100
H381        H  0.88780483  0.30589450  0.44049897     0.16600
F382        F  0.94542151  0.28886590  0.37915177    -0.22800
H383        H  0.91752683  0.24621575  0.37506770     0.18400
C384        C  0.84817840  0.22587597  0.39378129     0.26400
C385        C  0.83591367  0.20156386  0.38946452    -0.11300
C386        C  0.85039107  0.17784450  0.39045179    -0.25300
C387        C  0.87752122  0.17897013  0.39607919     0.37300
C388        C  0.88979331  0.20333016  0.40021924    -0.27000
F389        F  0.83372735  0.24838581  0.39207167    -0.19100
H390        H  0.81501471  0.20135134  0.38521314     0.16600
F391        F  0.89226267  0.15663353  0.39754261    -0.22800
H392        H  0.91070604  0.20378920  0.40444297     0.18400
C393        C  0.90264288  0.49270277  0.45935861    -0.26900
C394        C  0.88695806  0.47031689  0.45476102     0.06800
C395        C  0.85927410  0.47308361  0.45436034     0.26400
C396        C  0.84767480  0.49779495  0.45812528    -0.11300
C397        C  0.86336886  0.52030911  0.46210216    -0.25300
C398        C  0.89105021  0.51752073  0.46278567     0.37200
C399        C  0.89953694  0.44445456  0.44938975     0.06800
F400        F  0.84343453  0.45213131  0.44934815    -0.19100
H401        H  0.82631565  0.49938650  0.45735458     0.16600
F402        F  0.90694290  0.53869172  0.46676241    -0.22800
H403        H  0.92399157  0.49099637  0.46015180     0.18400
C404        C  0.92036408  0.44268162  0.43267634     0.26400
C405        C  0.93162157  0.41823921  0.42714199    -0.11300
C406        C  0.92229691  0.39504839  0.43796531    -0.25300
C407        C  0.90153110  0.39671239  0.45470816     0.37300
C408        C  0.89037372  0.42125299  0.46043280    -0.27000
F409        F  0.92933522  0.46446429  0.42112456    -0.19100
H410        H  0.94751818  0.41735037  0.41407834     0.16600
F411        F  0.89256654  0.37476149  0.46599682    -0.22800
H412        H  0.87466803  0.42216419  0.47366021     0.18400
C413        C  0.12260658  0.47086520  0.39995629    -0.26900
C414        C  0.09601626  0.46637742  0.40576300     0.06800
C415        C  0.07904931  0.48801869  0.40950496     0.26400
C416        C  0.08867819  0.51381102  0.40755526    -0.11300
C417        C  0.11540781  0.51841034  0.40202790    -0.25300
C418        C  0.13226702  0.49662830  0.39793986     0.37200
C419        C  0.08597479  0.43912807  0.40804409     0.06800
F420        F  0.05336298  0.48415474  0.41577276    -0.19100
H421        H  0.07535064  0.53017902  0.41091529     0.16600
F422        F  0.15804755  0.50015808  0.39183104    -0.22800
H423        H  0.13584519  0.45435588  0.39684579     0.18400
C424        C  0.06579320  0.43003287  0.39296032     0.26400
C425        C  0.05467321  0.40513578  0.39652575    -0.11300
C426        C  0.06315186  0.38898018  0.41544056    -0.25300
C427        C  0.08431382  0.39765273  0.42985147     0.37300
C428        C  0.09570259  0.42250956  0.42602023    -0.27000
F429        F  0.05658932  0.44544327  0.37499684    -0.19100
H430        H  0.03886804  0.39872685  0.38480299     0.16600
F431        F  0.09289674  0.38293836  0.44852692    -0.22800
H432        H  0.11133797  0.42929068  0.43774965     0.18400
C433        C  0.89183313  0.93451367  0.37469841    -0.26900
C434        C  0.87461042  0.94570460  0.39172881     0.06800
C435        C  0.86884305  0.93146273  0.41271719     0.26400
C436        C  0.88091193  0.90705339  0.41685799    -0.11300
C437        C  0.89901623  0.89643404  0.40027494    -0.25300
C438        C  0.90402295  0.91021014  0.37891291     0.37200
C439        C  0.86352766  0.97253762  0.38791552     0.06800
F440        F  0.85257588  0.94169181  0.42978957    -0.19100
H441        H  0.87689975  0.89692247  0.43351658     0.16600
F442        F  0.92071205  0.90017779  0.36208969    -0.22800
H443        H  0.89605291  0.94475584  0.35813365     0.18400
C444        C  0.87998455  0.99368781  0.38109434     0.26400
C445        C  0.86957775  0.01912892  0.37857100    -0.11300
C446        C  0.84262674  0.02404366  0.38286297    -0.25300
C447        C  0.82608402  0.00275407  0.38929072     0.37300
C448        C  0.83648111  0.97733498  0.39168711    -0.27000
F449        F  0.90633643  0.98998604  0.37769636    -0.19100
H450        H  0.88274827  0.03508311  0.37359905     0.16600
F451        F  0.79984931  0.00639716  0.39346634    -0.22800
H452        H  0.82332606  0.96133161  0.39654531     0.18400
C453        C  0.86941723  0.76779679  0.42699363    -0.26900
C454        C  0.88021824  0.75497448  0.44693316     0.06800
C455        C  0.90083949  0.76705791  0.45967663     0.26400
C456        C  0.91107107  0.79119463  0.45206214    -0.11300
C457        C  0.90112740  0.80353472  0.43148124    -0.25300
C458        C  0.87982506  0.79186910  0.41920963     0.37200
C459        C  0.87123487  0.72815633  0.45319469     0.06800
F460        F  0.91131486  0.75530758  0.47927199    -0.19100
H461        H  0.92725736  0.80000423  0.46194601     0.16600
F462        F  0.87020094  0.80281825  0.39888629    -0.22800
H463        H  0.85369989  0.75855397  0.41682674     0.18400
C464        C  0.84444087  0.72299983  0.45782878     0.26400
C465        C  0.83597740  0.69716370  0.46194406    -0.11300
C466        C  0.85406578  0.67603292  0.46138650    -0.25300
C467        C  0.88104478  0.68137758  0.45734746     0.37300
C468        C  0.88947390  0.70725633  0.45331563    -0.27000
F469        F  0.82650061  0.74295447  0.45837643    -0.19100
H470        H  0.81514090  0.69367943  0.46525006     0.16600
F471        F  0.89921151  0.66163968  0.45669126    -0.22800
H472        H  0.91020439  0.71092417  0.44960170     0.18400
C473        C  0.07533938  0.92868718  0.40392502    -0.26900
C474        C  0.07033069  0.94427654  0.42432755     0.06800
C475        C  0.05077719  0.93607770  0.44070810     0.26400
C476        C  0.03691183  0.91256412  0.43683288    -0.11300
C477        C  0.04234904  0.89678479  0.41667940    -0.25300
C478        C  0.06157297  0.90511908  0.40013507     0.37200
C479        C  0.08552174  0.96898774  0.42832692     0.06800
F480        F  0.04555571  0.95040046  0.46077730    -0.19100
H481        H  0.02216370  0.90642895  0.44979100     0.16600
F482        F  0.06651881  0.89081061  0.37999770    -0.22800
H483        H  0.08979449  0.93492557  0.39073779     0.18400
C484        C  0.11326107  0.96931000  0.42602164     0.26400
C485        C  0.12732640  0.99282669  0.42924427    -0.11300
C486        C  0.11409749  0.01646705  0.43493124    -0.25300
C487        C  0.08637051  0.01602013  0.43766641     0.37300
C488        C  0.07230684  0.99253664  0.43424563    -0.27000
F489        F  0.12682984  0.94680210  0.42099388    -0.19100
H490        H  0.14865412  0.99251758  0.42719085     0.16600
F491        F  0.07271349  0.03829643  0.44328829    -0.22800
H492        H  0.05093290  0.99286581  0.43584614     0.18400
C493        C  0.10897285  0.72237120  0.40250449    -0.26900
C494        C  0.08128658  0.72375118  0.40105566     0.06800
C495        C  0.06664489  0.70016808  0.39965772     0.26400
C496        C  0.07953766  0.67570860  0.40013762    -0.11300
C497        C  0.10725126  0.67429693  0.40170813    -0.25300
C498        C  0.12189920  0.69797097  0.40276338     0.37200
C499        C  0.06786732  0.74981051  0.40159226     0.06800
F500        F  0.03983099  0.70075388  0.39844362    -0.19100
H501        H  0.06779711  0.65783911  0.39919244     0.16600
F502        F  0.14870283  0.69765813  0.40431528    -0.22800
H503        H  0.12064077  0.74029497  0.40336385     0.18400
C504        C  0.07336673  0.76813565  0.41990883     0.26400
C505        C  0.06043178  0.79251549  0.42055509    -0.11300
C506        C  0.04170441  0.79909710  0.40305161    -0.25300
C507        C  0.03639560  0.78091496  0.38455385     0.37300
C508        C  0.04940538  0.75649719  0.38386992    -0.27000
F509        F  0.09059748  0.76210844  0.43765458    -0.19100
H510        H  0.06457416  0.80606584  0.43513250     0.16600
F511        F  0.01899587  0.78693530  0.36694849    -0.22800
H512        H  0.04519559  0.74283692  0.36940094     0.18400
C513        C  0.74345440  0.56439338  0.32066115    -0.26900
C514        C  0.74590390  0.55066906  0.34222750     0.06800
C515        C  0.74124419  0.52333546  0.34276595     0.26400
C516        C  0.73498964  0.50983905  0.32171179    -0.11300
C517        C  0.73324355  0.52343863  0.29991893    -0.25300
C518        C  0.73716012  0.55098068  0.29962678     0.37200
C519        C  0.75586360  0.56444316  0.36355091     0.06800
F520        F  0.74414391  0.50951835  0.36336549    -0.19100
H521        H  0.73212615  0.48865099  0.32237522     0.16600
F522        F  0.73600618  0.56486240  0.27892983    -0.22800
H523        H  0.74711393  0.58547771  0.32004312     0.18400
C524        C  0.78069961  0.57678258  0.36277210     0.26400
C525        C  0.79167258  0.58710203  0.38358559    -0.11300
C526        C  0.77821241  0.58507182  0.40554124    -0.25300
C527        C  0.75258711  0.57415739  0.40603034     0.37300
C528        C  0.74159035  0.56379261  0.38510074    -0.27000
F529        F  0.79515597  0.57719046  0.34223595    -0.19100
H530        H  0.81139407  0.59545190  0.38267770     0.16600
F531        F  0.73875121  0.57220885  0.42681488    -0.22800
H532        H  0.72227405  0.55452068  0.38581452     0.18400
C533        C  0.73158689  0.11611618  0.22354974    -0.26900
C534        C  0.75780890  0.11301084  0.23124462     0.06800
C535        C  0.77856507  0.11538632  0.21453490     0.26400
C536        C  0.77316145  0.12218119  0.19090676    -0.11300
C537        C  0.74709498  0.12716084  0.18365737    -0.25300
C538        C  0.72620535  0.12326891  0.19996412     0.37200
C539        C  0.76366470  0.10927537  0.25690804     0.06800
F540        F  0.80420229  0.11308550  0.22140571    -0.19100
H541        H  0.78957001  0.12519814  0.17869012     0.16600
F542        F  0.70068619  0.12719199  0.19334971    -0.22800
H543        H  0.71530382  0.11380417  0.23603215     0.18400
C544        C  0.75274478  0.12633209  0.27430480     0.26400
C545        C  0.76046110  0.12432620  0.29821202    -0.11300
C546        C  0.77951413  0.10569956  0.30502003    -0.25300
C547        C  0.78985555  0.08818064  0.28775493     0.37300
C548        C  0.78176494  0.08984121  0.26397377    -0.27000
F549        F  0.73576419  0.14586811  0.26801393    -0.19100
H550        H  0.75235456  0.13806376  0.31123046     0.16600
F551        F  0.80780790  0.06945166  0.29383061    -0.22800
H552        H  0.79005297  0.07624058  0.25093201     0.18400
C553        C  0.22420552  0.13987819  0.28834219    -0.26900
C554        C  0.20736268  0.11876049  0.29385306     0.06800
C555        C  0.19539204  0.10447520  0.27516913     0.26400
C556        C  0.19995758  0.11149766  0.25133973    -0.11300
C557        C  0.21615090  0.13317236  0.24575637    -0.25300
C558        C  0.22844017  0.14722332  0.26453182     0.37200
C559        C  0.20024071  0.11330803  0.31901969     0.06800
F560        F  0.17899589  0.08393286  0.28004431    -0.19100
H561        H  0.19024158  0.10039202  0.23727369     0.16600
F562        F  0.24434761  0.16822124  0.25995989    -0.22800
H563        H  0.23332570  0.15127774  0.30254776     0.18400
C564        C  0.21944115  0.10685675  0.33618974     0.26400
C565        C  0.21186093  0.10193340  0.35993201    -0.11300
C566        C  0.18508943  0.10355689  0.36681814    -0.25300
C567        C  0.16608895  0.11046136  0.34954635     0.37300
C568        C  0.17366719  0.11517412  0.32596593    -0.27000
F569        F  0.24533828  0.10483524  0.32989703    -0.19100
H570        H  0.22687128  0.09674299  0.37286514     0.16600
F571        F  0.14013382  0.11309811  0.35541999    -0.22800
H572        H  0.15869326  0.12063330  0.31304099     0.18400
C573        C  0.89021002  0.43027548  0.17965246    -0.26900
C574        C  0.87854327  0.41909894  0.20013400     0.06800
C575        C  0.89259351  0.39986636  0.21296256     0.26400
C576        C  0.91778400  0.39202053  0.20531218    -0.11300
C577        C  0.92940013  0.40327437  0.18485537    -0.25300
C578        C  0.91543972  0.42257167  0.17211664     0.37200
C579        C  0.85203512  0.42817593  0.20812209     0.06800
F580        F  0.88218062  0.38898305  0.23305917    -0.19100
H581        H  0.92821992  0.37697731  0.21526511     0.16600
F582        F  0.92567053  0.43306156  0.15176909    -0.22800
H583        H  0.87955238  0.44477444  0.16923908     0.18400
C584        C  0.84678695  0.45530984  0.21019169     0.26400
C585        C  0.82162699  0.46411304  0.21656603    -0.11300
C586        C  0.80098175  0.44617253  0.22102949    -0.25300
C587        C  0.80631030  0.41889713  0.21958924     0.37300
C588        C  0.83168610  0.41002773  0.21315951    -0.27000
F589        F  0.86609546  0.47341638  0.20616974    -0.19100
H590        H  0.81826910  0.48522027  0.21768114     0.16600
F591        F  0.78707391  0.40085103  0.22406061    -0.22800
H592        H  0.83528719  0.38901248  0.21158635     0.18400
C593        C  0.06431468  0.24178249  0.13693634    -0.26900
C594        C  0.08010730  0.24513088  0.15731465     0.06800
C595        C  0.07125619  0.26141007  0.17611532     0.26400
C596        C  0.04686692  0.27414817  0.17446271    -0.11300
C597        C  0.03103128  0.27082750  0.15406574    -0.25300
C598        C  0.03995022  0.25454200  0.13524708     0.37200
C599        C  0.10551162  0.23108600  0.15903894     0.06800
F600        F  0.08588561  0.26443187  0.19627722    -0.19100
H601        H  0.04019759  0.28644100  0.18922244     0.16600
F602        F  0.02549296  0.25159087  0.11497225    -0.22800
H603        H  0.07103127  0.22943747  0.12222253     0.18400
C604        C  0.10627412  0.20347823  0.15711142     0.26400
C605        C  0.13025391  0.19014107  0.15917094    -0.11300
C606        C  0.15393044  0.20408104  0.16299977    -0.25300
C607        C  0.15319165  0.23185223  0.16451368     0.37300
C608        C  0.12906555  0.24518326  0.16268046    -0.27000
F609        F  0.08370309  0.18937802  0.15385944    -0.19100
H610        H  0.13022608  0.16878188  0.15788433     0.16600
F611        F  0.17559343  0.24611569  0.16804921    -0.22800
H612        H  0.12873646  0.26653255  0.16399360     0.18400
C613        C  0.89936511  0.24086950  0.14958063    -0.26900
C614        C  0.88337151  0.25010697  0.13096574     0.06800
C615        C  0.89294341  0.26958140  0.11541031     0.26400
C616        C  0.91802327  0.28028786  0.11894074    -0.11300
C617        C  0.93390283  0.27144672  0.13782312    -0.25300
C618        C  0.92464140  0.25131217  0.15291708     0.37200
C619        C  0.85663832  0.23943950  0.12782834     0.06800
F620        F  0.87763687  0.27882759  0.09737275    -0.19100
H621        H  0.92490209  0.29589300  0.10724697     0.16600
F622        F  0.93949139  0.24272274  0.17152995    -0.22800
H623        H  0.89214655  0.22572602  0.16159173     0.18400
C624        C  0.85035572  0.22510588  0.10712418     0.26400
C625        C  0.82508385  0.21464190  0.10431886    -0.11300
C626        C  0.80577802  0.21810641  0.12222302    -0.25300
C627        C  0.81197736  0.23304787  0.14278953     0.37300
C628        C  0.83734728  0.24355297  0.14554390    -0.27000
F629        F  0.86900538  0.22038799  0.09008253    -0.19100
H630        H  0.82094798  0.20296444  0.08846033     0.16600
F631        F  0.79377034  0.23719560  0.16033816    -0.22800
H632        H  0.84202184  0.25481334  0.16151324     0.18400
C633        C  0.57022471  0.39122073  0.20198131    -0.26900
C634        C  0.57021329  0.40791205  0.22211029     0.06800
C635        C  0.54607469  0.41313825  0.23386976     0.26400
C636        C  0.52273900  0.40076405  0.22622729    -0.11300
C637        C  0.52299508  0.38322775  0.20660672    -0.25300
C638        C  0.54697993  0.37913683  0.19418270     0.37200
C639        C  0.59551364  0.42000938  0.23004018     0.06800
F640        F  0.54515764  0.42953690  0.25314336    -0.19100
H641        H  0.50456157  0.40441886  0.23603215     0.16600
F642        F  0.54794614  0.36389752  0.17413363    -0.22800
H643        H  0.58835337  0.38772893  0.19204088     0.18400
C644        C  0.61847829  0.40446291  0.23219029     0.26400
C645        C  0.64307450  0.41633182  0.23598785    -0.11300
C646        C  0.64531763  0.44390176  0.23782368    -0.25300
C647        C  0.62205697  0.45931318  0.23753396     0.37300
C648        C  0.59744558  0.44741429  0.23354523    -0.27000
F649        F  0.61722737  0.37777775  0.22999102    -0.19100
H650        H  0.66053215  0.40393091  0.23655557     0.16600
F651        F  0.62311197  0.48596898  0.24009494    -0.22800
H652        H  0.58006105  0.45980936  0.23204008     0.18400
C653        C  0.35463672  0.17890307  0.17135430    -0.26900
C654        C  0.35995345  0.20562773  0.16737512     0.06800
C655        C  0.33891950  0.22346053  0.16473537     0.26400
C656        C  0.31276759  0.21453887  0.16596564    -0.11300
C657        C  0.30723357  0.18770862  0.16998753    -0.25300
C658        C  0.32851932  0.16992359  0.17272430     0.37200
C659        C  0.38739083  0.21530958  0.16746103     0.06800
F660        F  0.34375557  0.24954205  0.16124765    -0.19100
H661        H  0.29685581  0.22866234  0.16386892     0.16600
F662        F  0.32420413  0.14387602  0.17683566    -0.22800
H663        H  0.37076781  0.16505078  0.17368534     0.18400
C664        C  0.39846736  0.22473125  0.18881235     0.26400
C665        C  0.42301470  0.23732913  0.18849757    -0.11300
C666        C  0.43693904  0.24051594  0.16690565    -0.25300
C667        C  0.42661411  0.22941323  0.14573965     0.37300
C668        C  0.40183057  0.21704293  0.14604703    -0.27000
F669        F  0.38496894  0.22270291  0.20976924    -0.19100
H670        H  0.43079950  0.24543971  0.20502865     0.16600
F671        F  0.43959593  0.23208260  0.12456654    -0.22800
H672        H  0.39345674  0.20970502  0.12947854     0.18400
C673        C  0.55890489  0.23179561  0.11745513    -0.26900
C674        C  0.58176859  0.23913274  0.13003406     0.06800
C675        C  0.57960817  0.25642038  0.14964561     0.26400
C676        C  0.55488731  0.26561034  0.15693340    -0.11300
C677        C  0.53180613  0.25799992  0.14471702    -0.25300
C678        C  0.53408105  0.24124802  0.12459677     0.37200
C679        C  0.60768372  0.22758965  0.12375775     0.06800
F680        F  0.60128352  0.26342062  0.16249694    -0.19100
H681        H  0.55376053  0.27810335  0.17269889     0.16600
F682        F  0.51247483  0.23423670  0.11168070    -0.22800
H683        H  0.56031490  0.21865849  0.10214495     0.18400
C684        C  0.61107889  0.20007865  0.12351947     0.26400
C685        C  0.63625011  0.18929838  0.12051920    -0.11300
C686        C  0.65847189  0.20572193  0.11778692    -0.25300
C687        C  0.65489600  0.23327523  0.11702268     0.37300
C688        C  0.62964913  0.24404524  0.12000288    -0.27000
F689        F  0.59031852  0.18365752  0.12758087    -0.19100
H690        H  0.63841380  0.16803165  0.12113109     0.16600
F691        F  0.67575286  0.24985380  0.11406771    -0.22800
H692        H  0.62728604  0.26531320  0.11995947     0.18400
C693        C  0.21617918  0.53854148  0.26312519    -0.26900
C694        C  0.21343416  0.56600660  0.26363491     0.06800
C695        C  0.21652650  0.58056346  0.24252594     0.26400
C696        C  0.22177853  0.56749660  0.22090302    -0.11300
C697        C  0.22351494  0.53978028  0.22015772    -0.25300
C698        C  0.22104117  0.52542795  0.24161086     0.37200
C699        C  0.20407830  0.57852029  0.28579059     0.06800
F700        F  0.21375826  0.60722784  0.24280710    -0.19100
H701        H  0.22364857  0.57896620  0.20466017     0.16600
F702        F  0.22275899  0.49866928  0.24183159    -0.22800
H703        H  0.21350490  0.52714980  0.27933888     0.18400
C704        C  0.17703730  0.58381487  0.28853024     0.26400
C705        C  0.16698203  0.59100515  0.31085193    -0.11300
C706        C  0.18372507  0.59285572  0.33080911    -0.25300
C707        C  0.21114148  0.58887477  0.32771992     0.37300
C708        C  0.22115814  0.58152457  0.30530244    -0.27000
F709        F  0.16011900  0.58018859  0.26997727    -0.19100
H710        H  0.14583405  0.59395039  0.31270794     0.16600
F711        F  0.22804162  0.59062629  0.34649521    -0.22800
H712        H  0.24204294  0.57713759  0.30335050     0.18400
C713        C  0.10552350  0.47565442  0.14991670    -0.26900
C714        C  0.10034370  0.44854445  0.14832505     0.06800
C715        C  0.12154784  0.43067613  0.14643628     0.26400
C716        C  0.14761105  0.43989825  0.14679742    -0.11300
C717        C  0.15287428  0.46706782  0.14871250    -0.25300
C718        C  0.13152226  0.48493997  0.14995399     0.37200
C719        C  0.07287943  0.43885179  0.14974750     0.06800
F720        F  0.11704204  0.40427154  0.14510460    -0.19100
H721        H  0.16366719  0.42576909  0.14574982     0.16600
F722        F  0.13568296  0.51134689  0.15189899    -0.22800
H723        H  0.08934364  0.48963850  0.15132001     0.18400
C724        C  0.05744098  0.44372833  0.17027023     0.26400
C725        C  0.03260246  0.43187903  0.17271933    -0.11300
C726        C  0.02277656  0.41521681  0.15465750    -0.25300
C727        C  0.03749506  0.41200493  0.13336059     0.37300
C728        C  0.06246503  0.42352092  0.13109528    -0.27000
F729        F  0.06709794  0.45858813  0.18854801    -0.19100
H730        H  0.02171062  0.43455050  0.18929380     0.16600
F731        F  0.02800266  0.39718426  0.11498170    -0.22800
H732        H  0.07394385  0.42006497  0.11496294     0.18400
C733        C  0.33058591  0.41167795  0.16868047    -0.26900
C734        C  0.35191233  0.42450822  0.17989537     0.06800
C735        C  0.34924060  0.45130775  0.18629434     0.26400
C736        C  0.32577566  0.46483072  0.18138433    -0.11300
C737        C  0.30464371  0.45205362  0.16983825    -0.25300
C738        C  0.30724900  0.42525123  0.16356961     0.37200
C739        C  0.37729947  0.41019727  0.18311959     0.06800
F740        F  0.36966057  0.46482829  0.19623468    -0.19100
H741        H  0.32429692  0.48549187  0.18634134     0.16600
F742        F  0.28762736  0.41231856  0.15183203    -0.22800
H743        H  0.33213137  0.39106239  0.16354657     0.18400
C744        C  0.39157240  0.41138440  0.20472539     0.26400
C745        C  0.41576735  0.39812622  0.20683841    -0.11300
C746        C  0.42582665  0.38304628  0.18769577    -0.25300
C747        C  0.41128335  0.38146920  0.16631477     0.37300
C748        C  0.38743616  0.39503315  0.16407489    -0.27000
F749        F  0.38183870  0.42465778  0.22399921    -0.19100
H750        H  0.42644143  0.39921931  0.22359336     0.16600
F751        F  0.42045108  0.36739679  0.14727356    -0.22800
H752        H  0.37701160  0.39396735  0.14718539     0.18400
C753        C  0.25997320  0.07615148  0.02160604    -0.26900
C754        C  0.27183231  0.07906832  0.04412376     0.06800
C755        C  0.29931756  0.07554910  0.04623276     0.26400
C756        C  0.31477035  0.07057013  0.02590453    -0.11300
C757        C  0.30313040  0.06905982  0.00311445    -0.25300
C758        C  0.27539620  0.07105747  0.00125541     0.37200
C759        C  0.25620033  0.08873368  0.06483070     0.06800
F760        F  0.31146011  0.07873130  0.06769944    -0.19100
H761        H  0.33601865  0.06905368  0.02791233     0.16600
F762        F  0.26320359  0.06897260  0.97972455    -0.22800
H763        H  0.23878794  0.07863749  0.01970315     0.18400
C764        C  0.24356187  0.11340892  0.06371980     0.26400
C765        C  0.23315279  0.12496334  0.08445699    -0.11300
C766        C  0.23497637  0.11206443  0.10662764    -0.25300
C767        C  0.24542954  0.08628532  0.10727021     0.37300
C768        C  0.25623358  0.07489726  0.08654139    -0.27000
F769        F  0.24318880  0.12729621  0.04298846    -0.19100
H770        H  0.22495487  0.14468371  0.08335533     0.16600
F771        F  0.24680334  0.07275501  0.12814023    -0.22800
H772        H  0.26559432  0.05568931  0.08761616     0.18400
C773        C  0.45195687  0.22874575  0.95321689    -0.26900
C774        C  0.43155648  0.22023470  0.93805543     0.06800
C775        C  0.42414890  0.23613210  0.91860908     0.26400
C776        C  0.43725832  0.25990807  0.91426679    -0.11300
C777        C  0.45804848  0.26815424  0.92909852    -0.25300
C778        C  0.46515011  0.25249426  0.94882101     0.37200
C779        C  0.41859356  0.19442074  0.94198807     0.06800
F780        F  0.40499344  0.22811996  0.90322441    -0.19100
H781        H  0.43169506  0.27154458  0.89883984     0.16600
F782        F  0.48466633  0.26026969  0.96393434    -0.22800
H783        H  0.45770683  0.21691067  0.96846105     0.18400
C784        C  0.43364644  0.17113196  0.94338696     0.26400
C785        C  0.42107028  0.14658921  0.94483625    -0.11300
C786        C  0.39331616  0.14483873  0.94494095    -0.25300
C787        C  0.37831646  0.16832453  0.94455646     0.37300
C788        C  0.39091873  0.19280991  0.94307711    -0.27000
F789        F  0.46046418  0.17201713  0.94212325    -0.19100
H790        H  0.43310133  0.12887781  0.94514392     0.16600
F791        F  0.35146426  0.16773060  0.94506942    -0.22800
H792        H  0.37901852  0.21058950  0.94237895     0.18400
C793        C  0.73175414  0.55072019  0.07835295    -0.26900
C794        C  0.71164771  0.55554362  0.09514283     0.06800
C795        C  0.68781203  0.56693206  0.08767071     0.26400
C796        C  0.68364106  0.57213814  0.06342273    -0.11300
C797        C  0.70315775  0.56597038  0.04624489    -0.25300
C798        C  0.72767983  0.55597593  0.05407395     0.37200
C799        C  0.71365996  0.54421291  0.11927251     0.06800
F800        F  0.66800652  0.57145924  0.10365511    -0.19100
H801        H  0.66465468  0.57998962  0.05798712     0.16600
F802        F  0.74717507  0.54984718  0.03822684    -0.22800
H803        H  0.75010992  0.54159197  0.08391547     0.18400
C804        C  0.70539454  0.51811809  0.12283960     0.26400
C805        C  0.70707202  0.50674521  0.14541073    -0.11300
C806        C  0.71691544  0.52119441  0.16495005    -0.25300
C807        C  0.72503013  0.54758513  0.16142922     0.37300
C808        C  0.72341814  0.55896495  0.13862614    -0.27000
F809        F  0.69563821  0.50363320  0.10436575    -0.19100
H810        H  0.70057745  0.48648907  0.14756497     0.16600
F811        F  0.73475541  0.56224409  0.17981406    -0.22800
H812        H  0.72978930  0.57918157  0.13603714     0.18400
C813        C  0.61328576  0.45986948  0.95082817    -0.26900
C814        C  0.63092900  0.43924193  0.94536555     0.06800
C815        C  0.65820860  0.44444155  0.94505056     0.26400
C816        C  0.66763514  0.46975379  0.95043622    -0.11300
C817        C  0.65007573  0.49045940  0.95612618    -0.25300
C818        C  0.62268102  0.48524077  0.95621869     0.37200
C819        C  0.62068999  0.41266820  0.93907155     0.06800
F820        F  0.67567924  0.42523415  0.93877117    -0.19100
H821        H  0.68878723  0.47320412  0.94987362     0.16600
F822        F  0.60494337  0.50454581  0.96152572    -0.22800
H823        H  0.59215155  0.45625156  0.95099528     0.18400
C824        C  0.62836589  0.39003990  0.95188888     0.26400
C825        C  0.61818832  0.36513445  0.94571235    -0.11300
C826        C  0.60009208  0.36256604  0.92683987    -0.25300
C827        C  0.59273210  0.38520638  0.91391703     0.37300
C828        C  0.60290904  0.40994735  0.92003334    -0.27000
F829        F  0.64480975  0.39222825  0.97095396    -0.19100
H830        H  0.62364165  0.34803965  0.95619336     0.16600
F831        F  0.57540616  0.38336445  0.89545923    -0.22800
H832        H  0.59687885  0.42709667  0.90987256     0.18400
C833        C  0.29918367  0.55060796  0.01046955    -0.26900
C834        C  0.27223222  0.54422550  0.01087854     0.06800
C835        C  0.25849556  0.54142633  0.98919231     0.26400
C836        C  0.27185332  0.54474503  0.96739450    -0.11300
C837        C  0.29906944  0.55071376  0.96698755    -0.25300
C838        C  0.31257180  0.55369042  0.98884368     0.37200
C839        C  0.25968345  0.53859276  0.03416282     0.06800
F840        F  0.23228331  0.53552770  0.98913192    -0.19100
H841        H  0.26096069  0.54243559  0.95085664     0.16600
F842        F  0.33887814  0.55902524  0.98945946    -0.22800
H843        H  0.31013123  0.55242411  0.02705300     0.18400
C844        C  0.25015734  0.51315900  0.03907859     0.26400
C845        C  0.24344973  0.50624802  0.06245910    -0.11300
C846        C  0.24613137  0.52453172  0.08132777    -0.25300
C847        C  0.25419196  0.55049636  0.07612861     0.37300
C848        C  0.26102537  0.55734898  0.05270658    -0.27000
F849        F  0.24925825  0.49441532  0.02164103    -0.19100
H850        H  0.23709611  0.48617915  0.06590665     0.16600
F851        F  0.25668869  0.56889697  0.09372475    -0.22800
H852        H  0.26844514  0.57703709  0.04915621     0.18400
C853        C  0.42990278  0.46197514  0.90175700    -0.26900
C854        C  0.41636174  0.43787677  0.90419366     0.06800
C855        C  0.38858777  0.43817118  0.90592858     0.26400
C856        C  0.37474011  0.46200481  0.90473112    -0.11300
C857        C  0.38820661  0.48612297  0.90217661    -0.25300
C858        C  0.41605401  0.48589676  0.90081277     0.37200
C859        C  0.43134707  0.41270023  0.90576671     0.06800
F860        F  0.37482659  0.41552530  0.90964552    -0.19100
H861        H  0.35335807  0.46156832  0.90616783     0.16600
F862        F  0.42996311  0.50868694  0.89851875    -0.22800
H863        H  0.45129542  0.46225697  0.90048300     0.18400
C864        C  0.42415145  0.39043880  0.89201996     0.26400
C865        C  0.43785069  0.36660407  0.89450767    -0.11300
C866        C  0.45923641  0.36466503  0.91034679    -0.25300
C867        C  0.46678746  0.38702378  0.92372311     0.37300
C868        C  0.45292975  0.41075504  0.92143528    -0.27000
F869        F  0.40424799  0.39185568  0.87582772    -0.19100
H870        H  0.43195394  0.34967435  0.88384795     0.16600
F871        F  0.48698416  0.38565533  0.93963398    -0.22800
H872        H  0.45873547  0.42753578  0.93232310     0.18400
C873        C  0.74225321  0.07946104  0.03211260    -0.26900
C874        C  0.73788144  0.09231381  0.01032251     0.06800
C875        C  0.73320996  0.11963524  0.01012096     0.26400
C876        C  0.73339640  0.13398781  0.03136904    -0.11300
C877        C  0.73801215  0.12137937  0.05326937    -0.25300
C878        C  0.74248265  0.09389511  0.05353175     0.37200
C879        C  0.73639581  0.07745375  0.98771683     0.06800
F880        F  0.72757922  0.13231677  0.98938305    -0.19100
H881        H  0.72958744  0.15502016  0.03064535     0.16600
F882        F  0.74692348  0.08096235  0.07436120    -0.22800
H883        H  0.74549277  0.05831918  0.03248249     0.18400
C884        C  0.75230426  0.08488077  0.96823290     0.26400
C885        C  0.74588576  0.07646632  0.94519407    -0.11300
C886        C  0.72340164  0.06077648  0.94135627    -0.25300
C887        C  0.70932622  0.05089907  0.96121635     0.37300
C888        C  0.71588525  0.05923165  0.98430213    -0.27000
F889        F  0.77266665  0.10204434  0.97130809    -0.19100
H890        H  0.75722041  0.08404704  0.93022568     0.16600
F891        F  0.68816295  0.03470021  0.95825276    -0.22800
H892        H  0.70360912  0.05319353  0.99924059     0.18400
C893        C  0.61824980  0.17037380  0.87471657    -0.26900
C894        C  0.63443958  0.19063991  0.88376332     0.06800
C895        C  0.66130699  0.18535371  0.88791622     0.26400
C896        C  0.67161035  0.16013641  0.88348552    -0.11300
C897        C  0.65534761  0.13959296  0.87496466    -0.25300
C898        C  0.62854271  0.14510816  0.87024391     0.37200
C899        C  0.62277116  0.21655295  0.89050575     0.06800
F900        F  0.67727462  0.20419443  0.89744235    -0.19100
H901        H  0.69225922  0.15649176  0.88746063     0.16600
F902        F  0.61217785  0.12608723  0.86160946    -0.22800
H903        H  0.59746900  0.17408530  0.87139164     0.18400
C904        C  0.63239425  0.24039971  0.88094619     0.26400
C905        C  0.62103885  0.26460366  0.88780514    -0.11300
C906        C  0.59992912  0.26539989  0.90425769    -0.25300
C907        C  0.59081033  0.24148498  0.91416068     0.37300
C908        C  0.60200040  0.21741300  0.90718235    -0.27000
F909        F  0.65218323  0.24018795  0.86445466    -0.19100
H910        H  0.62824054  0.28267554  0.87975022     0.16600
F911        F  0.57121024  0.24140074  0.93084807    -0.22800
H912        H  0.59460605  0.19930731  0.91505666     0.18400
C913        C  0.60603785  0.67087719  0.94358266    -0.26900
C914        C  0.62167796  0.69378321  0.94300203     0.06800
C915        C  0.64859403  0.69203303  0.94892282     0.26400
C916        C  0.65961623  0.66771185  0.95524101    -0.11300
C917        C  0.64408777  0.64462456  0.95563676    -0.25300
C918        C  0.61708545  0.64646519  0.94966239     0.37200
C919        C  0.60961485  0.71941456  0.93651067     0.06800
F920        F  0.66409524  0.71393348  0.94903699    -0.19100
H921        H  0.68044276  0.66695998  0.95971602     0.16600
F922        F  0.60134832  0.62474407  0.94951875    -0.22800
H923        H  0.58523699  0.67188543  0.93901592     0.18400
C924        C  0.61896425  0.73396025  0.91683794     0.26400
C925        C  0.60651890  0.75755340  0.91033188    -0.11300
C926        C  0.58462338  0.76706310  0.92336665    -0.25300
C927        C  0.57588259  0.75287050  0.94353175     0.37300
C928        C  0.58814193  0.72916742  0.94984538    -0.27000
F929        F  0.63945789  0.72484205  0.90337087    -0.19100
H930        H  0.61350005  0.76799262  0.89467153     0.16600
F931        F  0.55568460  0.76205212  0.95732880    -0.22800
H932        H  0.58093371  0.71840264  0.96525376     0.18400
C933        C  0.60827601  0.95833005  0.88253000    -0.26900
C934        C  0.62341267  0.93514123  0.88200615     0.06800
C935        C  0.65072463  0.93665531  0.87772403     0.26400
C936        C  0.66277241  0.96119176  0.87438929    -0.11300
C937        C  0.64777892  0.98460512  0.87534822    -0.25300
C938        C  0.62030308  0.98293446  0.87934660     0.37200
C939        C  0.61062863  0.90946029  0.88632236     0.06800
F940        F  0.66565767  0.91438553  0.87663584    -0.19100
H941        H  0.68392112  0.96185169  0.87123602     0.16600
F942        F  0.60513877  0.00501269  0.88073499    -0.22800
H943        H  0.58715119  0.95736086  0.88588021     0.18400
C944        C  0.61592985  0.89529133  0.90729989     0.26400
C945        C  0.60325063  0.87122067  0.91150831    -0.11300
C946        C  0.58509807  0.86096885  0.89488275    -0.25300
C947        C  0.58005592  0.87514232  0.87374357     0.37300
C948        C  0.59267899  0.89926377  0.86960965    -0.27000
F949        F  0.63273807  0.90516554  0.92400367    -0.19100
H950        H  0.60710602  0.86087640  0.92807018     0.16600
F951        F  0.56319368  0.86553088  0.85697029    -0.22800
H952        H  0.58854390  0.90999406  0.85331364     0.18400
C953        C  0.41236581  0.88970514  0.93724836    -0.26900
C954        C  0.42082020  0.91187525  0.92428921     0.06800
C955        C  0.44000966  0.90878746  0.90630603     0.26400
C956        C  0.45100633  0.88397136  0.90172920    -0.11300
C957        C  0.44322329  0.86179006  0.91510761    -0.25300
C958        C  0.42355716  0.86481405  0.93281755     0.37200
C959        C  0.40951790  0.93821729  0.92937798     0.06800
F960        F  0.44796120  0.92977517  0.89306077    -0.19100
H961        H  0.46587328  0.88208463  0.88781890     0.16600
F962        F  0.41605113  0.84406773  0.94655658    -0.22800
H963        H  0.39753622  0.89184161  0.95116047     0.18400
C964        C  0.38296334  0.94352514  0.92412874     0.26400
C965        C  0.37269638  0.96883376  0.92775278    -0.11300
C966        C  0.38867167  0.98936921  0.93671845    -0.25300
C967        C  0.41522366  0.98383152  0.94249203     0.37300
C968        C  0.42552690  0.95844903  0.93868573    -0.27000
F969        F  0.36723468  0.92445559  0.91465144    -0.19100
H970        H  0.35223241  0.97245495  0.92305622     0.16600
F971        F  0.43129923  0.00286919  0.95153740    -0.22800
H972        H  0.44607253  0.95455966  0.94287723     0.18400
C973        C  0.44164740  0.71539922  0.90957976    -0.26900
C974        C  0.41686897  0.71351987  0.89857069     0.06800
C975        C  0.40504640  0.73645273  0.88939312     0.26400
C976        C  0.41818781  0.76080378  0.89089638    -0.11300
C977        C  0.44312462  0.76276913  0.90195887    -0.25300
C978        C  0.45452119  0.73967836  0.91158688     0.37200
C979        C  0.40331983  0.68760852  0.89776002     0.06800
F980        F  0.38102948  0.73521447  0.87864000    -0.19100
H981        H  0.40895101  0.77804027  0.88318336     0.16600
F982        F  0.47767707  0.74055910  0.92380776    -0.22800
H983        H  0.45075855  0.69803817  0.91725089     0.18400
C984        C  0.41582163  0.66553223  0.88739299     0.26400
C985        C  0.40401372  0.64060818  0.88863360    -0.11300
C986        C  0.37949627  0.63720003  0.90017082    -0.25300
C987        C  0.36681548  0.65944749  0.91027121     0.37300
C988        C  0.37866989  0.68439242  0.90899340    -0.27000
F989        F  0.43940263  0.66813305  0.87592516    -0.19100
H990        H  0.41406620  0.62395197  0.88044813     0.16600
F991        F  0.34324056  0.65711339  0.92178918    -0.22800
H992        H  0.36892649  0.70113410  0.91734992     0.18400
C993        C  0.76760765  0.64356518  0.62064144    -0.26900
C994        C  0.78092819  0.61971450  0.61641240     0.06800
C995        C  0.79056343  0.60514830  0.63586341     0.26400
C996        C  0.78760122  0.61481956  0.65916595    -0.11300
C997        C  0.77533440  0.63930930  0.66337558    -0.25300
C998        C  0.76486650  0.65339911  0.64388487     0.37200
C999        C  0.78714252  0.61169557  0.59163957     0.06800
F1000       F  0.80336891  0.58188997  0.63222779    -0.19100
H1001       H  0.79580344  0.60358723  0.67384307     0.16600
F1002       F  0.75259874  0.67700251  0.64713878    -0.22800
H1003       H  0.76033786  0.65517960  0.60580653     0.18400
C1004       C  0.76726655  0.60964401  0.57421038     0.26400
C1005       C  0.77401706  0.60439793  0.55037921    -0.11300
C1006       C  0.80066709  0.60139611  0.54362502    -0.25300
C1007       C  0.82045442  0.60297155  0.56127071     0.37300
C1008       C  0.81364844  0.60802725  0.58500929    -0.27000
F1009       F  0.74142237  0.61295190  0.58021222    -0.19100
H1010       H  0.75844379  0.60328530  0.53714642     0.16600
F1011       F  0.84649198  0.60058333  0.55557862    -0.22800
H1012       H  0.82925049  0.61003188  0.59815896     0.18400
C1013       C  0.77315783  0.63622328  0.84546914    -0.26900
C1014       C  0.77354439  0.60855736  0.84641072     0.06800
C1015       C  0.77941894  0.59406895  0.82554331     0.26400
C1016       C  0.78323342  0.60710963  0.80379909    -0.11300
C1017       C  0.78121069  0.63475365  0.80256858    -0.25300
C1018       C  0.77690874  0.64928579  0.82379000     0.37200
C1019       C  0.76325573  0.59533340  0.86803254     0.06800
F1020       F  0.78038938  0.56728509  0.82605262    -0.19100
H1021       H  0.78680975  0.59550693  0.78777402     0.16600
F1022       F  0.77443156  0.67598229  0.82341917    -0.22800
H1023       H  0.76818535  0.64769779  0.86128003     0.18400
C1024       C  0.77323073  0.60125149  0.89089641     0.26400
C1025       C  0.75963510  0.59283787  0.91138080    -0.11300
C1026       C  0.73575362  0.57878281  0.90927030    -0.25300
C1027       C  0.72680429  0.57149653  0.88631803     0.37300
C1028       C  0.74051349  0.57966456  0.86597723    -0.27000
F1029       F  0.79547119  0.61604041  0.89335513    -0.19100
H1030       H  0.76700748  0.59857089  0.92883219     0.16600
F1031       F  0.70410655  0.55751876  0.88339718    -0.22800
H1032       H  0.73237334  0.57512617  0.84851355     0.18400
C1033       C  0.75263858  0.02869100  0.50606723    -0.26900
C1034       C  0.74420356  0.05502560  0.50753236     0.06800
C1035       C  0.73783611  0.06593056  0.52998349     0.26400
C1036       C  0.74140383  0.05104357  0.55076775    -0.11300
C1037       C  0.75128633  0.02510133  0.54939809    -0.25300
C1038       C  0.75621009  0.01381236  0.52673155     0.37200
C1039       C  0.74638530  0.07160220  0.48597049     0.06800
F1040       F  0.72897616  0.09117408  0.53179680    -0.19100
H1041       H  0.73704216  0.06003342  0.56797314     0.16600
F1042       F  0.76592119  0.98892178  0.52449190    -0.22800
H1043       H  0.75797289  0.02008784  0.48891138     0.18400
C1044       C  0.76494265  0.09224010  0.48552654     0.26400
C1045       C  0.77293749  0.10298751  0.46375368    -0.11300
C1046       C  0.76264704  0.09332830  0.44209806    -0.25300
C1047       C  0.74211191  0.07454019  0.44271514     0.37300
C1048       C  0.73422706  0.06363538  0.46456541    -0.27000
F1049       F  0.77754445  0.09993522  0.50581881    -0.19100
H1050       H  0.78868689  0.11752015  0.46376048     0.16600
F1051       F  0.73151121  0.06481748  0.42219283    -0.22800
H1052       H  0.71995041  0.04766008  0.46463940     0.18400
C1053       C  0.76407787  0.04589079  0.71579682    -0.26900
C1054       C  0.76176066  0.02717822  0.73415107     0.06800
C1055       C  0.76648849  0.00041919  0.72895207     0.26400
C1056       C  0.77197817  0.99246024  0.70549153    -0.11300
C1057       C  0.77259930  0.01096354  0.68679433    -0.25300
C1058       C  0.76955793  0.03794723  0.69230865     0.37200
C1059       C  0.75128849  0.03529970  0.75779722     0.06800
F1060       F  0.76376497  0.98173068  0.74613504    -0.19100
H1061       H  0.77427901  0.97157018  0.70178859     0.16600
F1062       F  0.77077818  0.05657128  0.67494564    -0.22800
H1063       H  0.76066971  0.06662646  0.71955170     0.18400
C1064       C  0.76433563  0.02879143  0.77915011     0.26400
C1065       C  0.75300286  0.03544048  0.80126459    -0.11300
C1066       C  0.72837318  0.04832731  0.80238751    -0.25300
C1067       C  0.71556872  0.05508907  0.78094516     0.37300
C1068       C  0.72705485  0.04874994  0.75893634    -0.27000
F1069       F  0.78794916  0.01601876  0.77861081    -0.19100
H1070       H  0.76319710  0.02992716  0.81751795     0.16600
F1071       F  0.69181167  0.06760432  0.78116443    -0.22800
H1072       H  0.71660270  0.05372579  0.74265680     0.18400
C1073       C  0.23975745  0.63997674  0.53712485    -0.26900
C1074       C  0.23303984  0.61351837  0.53307885     0.06800
C1075       C  0.23729374  0.59481620  0.55111496     0.26400
C1076       C  0.24731359  0.60280546  0.57330397    -0.11300
C1077       C  0.25305305  0.62955523  0.57777212    -0.25300
C1078       C  0.24956112  0.64805159  0.55925324     0.37200
C1079       C  0.21997611  0.60627688  0.51049685     0.06800
F1080       F  0.23140630  0.56897852  0.54733001    -0.19100
H1081       H  0.24984474  0.58818253  0.58720459     0.16600
F1082       F  0.25449398  0.67414738  0.56272711    -0.22800
H1083       H  0.23640888  0.65461302  0.52336601     0.18400
C1084       C  0.19354914  0.59774574  0.51054867     0.26400
C1085       C  0.18007278  0.59448355  0.48896979    -0.11300
C1086       C  0.19275350  0.59967245  0.46705770    -0.25300
C1087       C  0.21961409  0.60715779  0.46707536     0.37300
C1088       C  0.23296597  0.61062987  0.48868362    -0.27000
F1089       F  0.18035234  0.59409906  0.53148655    -0.19100
H1090       H  0.15945313  0.58863825  0.48946549     0.16600
F1091       F  0.23274966  0.61210358  0.44633976    -0.22800
H1092       H  0.25333113  0.61736274  0.48845622     0.18400
C1093       C  0.27110237  0.57797363  0.74244013    -0.26900
C1094       C  0.27763347  0.59358512  0.76242368     0.06800
C1095       C  0.28041537  0.62099162  0.75967979     0.26400
C1096       C  0.27672286  0.63255408  0.73741786    -0.11300
C1097       C  0.27052714  0.61710958  0.71726740    -0.31700
C1098       C  0.26745451  0.58962032  0.71996318     0.37200
C1099       C  0.28365523  0.58148119  0.78578848     0.06800
F1100       F  0.28803156  0.63649693  0.77831878    -0.19100
H1101       H  0.27953164  0.65370067  0.73586355     0.16600
F1102       F  0.26107459  0.57404549  0.70100104    -0.22800
H1103       H  0.26904560  0.55677965  0.74424929     0.18400
C1104       C  0.27154145  0.59093869  0.80683135     0.26400
C1105       C  0.28106691  0.58331480  0.82917561    -0.11300
C1106       C  0.30290589  0.56627850  0.83091668    -0.25300
C1107       C  0.31382963  0.55539379  0.80983147     0.37300
C1108       C  0.30412382  0.56288767  0.78746399    -0.27000
F1109       F  0.25127995  0.60850105  0.80574135    -0.19100
H1110       H  0.27217795  0.59184794  0.84510265     0.16600
F1111       F  0.33456337  0.53838985  0.81073584    -0.22800
H1112       H  0.31366838  0.55538923  0.77141687     0.18400
C1113       C  0.24655132  0.06379328  0.52303232    -0.26900
C1114       C  0.23357967  0.06467943  0.54523955     0.06800
C1115       C  0.20724922  0.07320499  0.54656572     0.26400
C1116       C  0.19376493  0.08002133  0.52578948    -0.11300
C1117       C  0.20630923  0.07842037  0.50332975    -0.25300
C1118       C  0.23311723  0.07081647  0.50214984     0.37200
C1119       C  0.24629717  0.05399215  0.56671001     0.06800
F1120       F  0.19417420  0.07354486  0.56783912    -0.19100
H1121       H  0.17318647  0.08582285  0.52725893     0.16600
F1122       F  0.24606324  0.06923172  0.48085949    -0.22800
H1123       H  0.26685278  0.05701971  0.52185062     0.18400
C1124       C  0.24809644  0.02657853  0.56954936     0.26400
C1125       C  0.25687055  0.01610677  0.59112993    -0.11300
C1126       C  0.26375153  0.03279479  0.61030328    -0.25300
C1127       C  0.26279239  0.06034570  0.60713190     0.37300
C1128       C  0.25399238  0.07083130  0.58542868    -0.27000
F1129       F  0.23994766  0.00996386  0.55190047    -0.19100
H1130       H  0.25723842  0.99483707  0.59315238     0.16600
F1131       F  0.27007412  0.07707459  0.62498083    -0.22800
H1132       H  0.25256369  0.09205024  0.58338292     0.18400
C1133       C  0.29366747  0.06732157  0.83495033    -0.26900
C1134       C  0.31270840  0.06176912  0.81720268     0.06800
C1135       C  0.33963838  0.06202356  0.82352882     0.26400
C1136       C  0.34711691  0.06631418  0.84728692    -0.11300
C1137       C  0.32800097  0.07013205  0.86531572    -0.25300
C1138       C  0.30113592  0.07129876  0.85880468     0.37200
C1139       C  0.30436897  0.05339031  0.79280311     0.06800
F1140       F  0.35870253  0.05635626  0.80711443    -0.19100
H1141       H  0.36794993  0.06539845  0.85172729     0.16600
F1142       F  0.28199693  0.07550144  0.87550205    -0.22800
H1143       H  0.27284529  0.06780793  0.83044217     0.18400
C1144       C  0.28504500  0.03360974  0.78993289     0.26400
C1145       C  0.27888259  0.02395540  0.76718250    -0.11300
C1146       C  0.29177182  0.03369781  0.74675742    -0.25300
C1147       C  0.31077262  0.05382307  0.74947230     0.37300
C1148       C  0.31687230  0.06362638  0.77230209    -0.27000
F1149       F  0.27305188  0.02254891  0.80921686    -0.19100
H1150       H  0.26431036  0.00834536  0.76560205     0.16600
F1151       F  0.32439889  0.06309734  0.73028454    -0.22800
H1152       H  0.33175406  0.07889844  0.77400482     0.18400
C1153       C  0.43656655  0.71688347  0.69377549    -0.26900
C1154       C  0.42606783  0.71909977  0.67061302     0.06800
C1155       C  0.44076884  0.73216924  0.65289454     0.26400
C1156       C  0.46511065  0.74364512  0.65850792    -0.11300
C1157       C  0.47518510  0.74241741  0.68189495    -0.25300
C1158       C  0.46092429  0.72851518  0.69945057     0.37200
C1159       C  0.39927843  0.70889725  0.66526367     0.06800
F1160       F  0.43142871  0.73402214  0.63021201    -0.19100
H1161       H  0.47589378  0.75408204  0.64467091     0.16600
F1162       F  0.46972623  0.72757681  0.72235945    -0.22800
H1163       H  0.42538655  0.70700367  0.70768852     0.18400
C1164       C  0.39324149  0.68204691  0.66816532     0.26400
C1165       C  0.36775740  0.67275456  0.66326726    -0.11300
C1166       C  0.34771160  0.69013659  0.65584875    -0.25300
C1167       C  0.35382977  0.71704033  0.65285905     0.37300
C1168       C  0.37946532  0.72623271  0.65738233    -0.27000
F1169       F  0.41206343  0.66479647  0.67551761    -0.19100
H1170       H  0.36354295  0.65197051  0.66580313     0.16600
F1171       F  0.33516945  0.73440533  0.64539441    -0.22800
H1172       H  0.38380077  0.74702641  0.65508447     0.18400
C1173       C  0.60574309  0.75364302  0.74184431    -0.26900
C1174       C  0.61807397  0.73285923  0.72944692     0.06800
C1175       C  0.60444709  0.72000611  0.71083698     0.26400
C1176       C  0.57924386  0.72849372  0.70416966    -0.11300
C1177       C  0.56726779  0.74995985  0.71589101    -0.25300
C1178       C  0.58045482  0.76208958  0.73522393     0.37200
C1179       C  0.64546217  0.72498206  0.73517294     0.06800
F1180       F  0.61617958  0.70020672  0.69822209    -0.19100
H1181       H  0.56965858  0.71918745  0.68899588     0.16600
F1182       F  0.56906985  0.78245130  0.74734947    -0.22800
H1183       H  0.61586883  0.76352522  0.75640615     0.18400
C1184       C  0.66662069  0.74273348  0.73227863     0.26400
C1185       C  0.69275914  0.73382438  0.73425549    -0.11300
C1186       C  0.69810879  0.70716440  0.73928784    -0.25300
C1187       C  0.67674193  0.68987024  0.74353126     0.37300
C1188       C  0.65074880  0.69876399  0.74139065    -0.27000
F1189       F  0.66204763  0.76823877  0.72614214    -0.19100
H1190       H  0.70878052  0.74757034  0.73101585     0.16600
F1191       F  0.68082314  0.66405818  0.74883127    -0.22800
H1192       H  0.63462014  0.68491258  0.74387012     0.18400
C1193       C  0.45459905  0.92703785  0.68602175    -0.26900
C1194       C  0.43126891  0.91661495  0.67619173     0.06800
C1195       C  0.43193795  0.89187264  0.66476588     0.26400
C1196       C  0.45536725  0.87741782  0.66383456    -0.11300
C1197       C  0.47861567  0.88740214  0.67412074    -0.25300
C1198       C  0.47818269  0.91249576  0.68508747     0.37200
C1199       C  0.40600541  0.93111304  0.67803991     0.06800
F1200       F  0.40989388  0.88180752  0.65431764    -0.19100
H1201       H  0.45539420  0.85830943  0.65499321     0.16600
F1202       F  0.50020965  0.92243561  0.69566067    -0.22800
H1203       H  0.45435398  0.94610470  0.69489519     0.18400
C1204       C  0.38402420  0.91930295  0.68910831     0.26400
C1205       C  0.35940356  0.93173888  0.68873664    -0.11300
C1206       C  0.35624996  0.95624409  0.67744849    -0.25300
C1207       C  0.37854054  0.96849090  0.66700697     0.37300
C1208       C  0.40322498  0.95596839  0.66740016    -0.27000
F1209       F  0.38640451  0.89563107  0.70020694    -0.19100
H1210       H  0.34273865  0.92208611  0.69726093     0.16600
F1211       F  0.37644317  0.99219116  0.65590841    -0.22800
H1212       H  0.42000432  0.96527538  0.65875292     0.18400
C1213       C  0.62215599  0.88171136  0.65984017    -0.26900
C1214       C  0.62335651  0.89650041  0.63867107     0.06800
C1215       C  0.60017623  0.89970165  0.62504094     0.26400
C1216       C  0.57611561  0.88939261  0.63317437    -0.11300
C1217       C  0.57487421  0.87524054  0.65468743    -0.25300
C1218       C  0.59823092  0.87108068  0.66776706     0.37200
C1219       C  0.64852684  0.90961844  0.63188624     0.06800
F1220       F  0.60080982  0.91254989  0.60377440    -0.19100
H1221       H  0.55845371  0.89225800  0.62256778     0.16600
F1222       F  0.59775466  0.85762584  0.68873027    -0.22800
H1223       H  0.63966667  0.87907774  0.67071099     0.18400
C1224       C  0.64896719  0.93663651  0.62620555     0.26400
C1225       C  0.67293806  0.94936874  0.62173914    -0.11300
C1226       C  0.69705421  0.93564274  0.62310994    -0.25300
C1227       C  0.69668629  0.90857575  0.62873305     0.37300
C1228       C  0.67259939  0.89573055  0.63299149    -0.27000
F1229       F  0.62638257  0.95115355  0.62620360    -0.19100
H1230       H  0.67260031  0.97026427  0.61767465     0.16600
F1231       F  0.71952315  0.89468536  0.63084978    -0.22800
H1232       H  0.67276307  0.87495864  0.63752057     0.18400
C1233       C  0.16300275  0.73630947  0.64744831    -0.26900
C1234       C  0.14106468  0.72216849  0.65604401     0.06800
C1235       C  0.14439829  0.69578676  0.66309604     0.26400
C1236       C  0.16940126  0.68405531  0.66207896    -0.11300
C1237       C  0.19154142  0.69834611  0.65398245    -0.25300
C1238       C  0.18804115  0.72459235  0.64640934     0.37200
C1239       C  0.11490517  0.73521068  0.65772392     0.06800
F1240       F  0.12339562  0.68120809  0.67052896    -0.19100
H1241       H  0.17141280  0.66370101  0.66768288     0.16600
F1242       F  0.20866763  0.73888519  0.63778390    -0.22800
H1243       H  0.16077119  0.75663265  0.64179386     0.18400
C1244       C  0.10079399  0.73582424  0.67947450     0.26400
C1245       C  0.07673489  0.74934514  0.68110784    -0.11300
C1246       C  0.06648739  0.76264501  0.66118763    -0.25300
C1247       C  0.08036117  0.76162273  0.63933156     0.37300
C1248       C  0.10438098  0.74805177  0.63768157    -0.27000
F1249       F  0.11084834  0.72439403  0.69940585    -0.19100
H1250       H  0.06652723  0.75021053  0.69817922     0.16600
F1251       F  0.07061904  0.77365705  0.61956924    -0.22800
H1252       H  0.11487282  0.74762348  0.62073559     0.18400
C1253       C  0.92473149  0.76788125  0.68924872    -0.26900
C1254       C  0.92640474  0.75179937  0.70954094     0.06800
C1255       C  0.95133631  0.74620314  0.71936277     0.26400
C1256       C  0.97418962  0.75678854  0.70900741    -0.11300
C1257       C  0.97251282  0.77285457  0.68860846    -0.25300
C1258       C  0.94750687  0.77820685  0.67874506     0.37200
C1259       C  0.90214138  0.73926574  0.71884092     0.06800
F1260       F  0.95353160  0.73065699  0.73899030    -0.19100
H1261       H  0.99321198  0.75256185  0.71701647     0.16600
F1262       F  0.94512646  0.79255323  0.65839805    -0.22800
H1263       H  0.90572615  0.77175219  0.68103324     0.18400
C1264       C  0.87951955  0.75441725  0.72405715     0.26400
C1265       C  0.85546531  0.74198918  0.72908786    -0.11300
C1266       C  0.85362641  0.71430675  0.72893766    -0.25300
C1267       C  0.87669770  0.69921929  0.72495765     0.37300
C1268       C  0.90067519  0.71167817  0.71996163    -0.27000
F1269       F  0.88059963  0.78120555  0.72372048    -0.19100
H1270       H  0.83810559  0.75405368  0.73236105     0.16600
F1271       F  0.87601036  0.67241484  0.72494504    -0.22800
H1272       H  0.91787674  0.69969514  0.71580352     0.18400
C1273       C  0.11147929  0.92733769  0.64771621    -0.26900
C1274       C  0.12381433  0.92271082  0.66978746     0.06800
C1275       C  0.10958115  0.90993015  0.68800150     0.26400
C1276       C  0.08378775  0.90108115  0.68378832    -0.11300
C1277       C  0.07167917  0.90493558  0.66140962    -0.25300
C1278       C  0.08558089  0.91870231  0.64355162     0.37200
C1279       C  0.15134491  0.93171684  0.67371926     0.06800
F1280       F  0.12100098  0.90505985  0.70949503    -0.19100
H1281       H  0.07346870  0.89052391  0.69782018     0.16600
F1282       F  0.07471065  0.92252540  0.62166445    -0.22800
H1283       H  0.12208827  0.93748169  0.63358050     0.18400
C1284       C  0.17215902  0.92250372  0.65914213     0.26400
C1285       C  0.19771203  0.93287913  0.66175430    -0.11300
C1286       C  0.20283940  0.95282687  0.67874078    -0.25300
C1287       C  0.18209577  0.96123913  0.69389760     0.37300
C1288       C  0.15668611  0.95063230  0.69144332    -0.27000
F1289       F  0.16768227  0.90363612  0.64228033    -0.19100
H1290       H  0.21328266  0.92593216  0.64993323     0.16600
F1291       F  0.18620121  0.98004865  0.71086465    -0.22800
H1292       H  0.14088783  0.95785746  0.70290164     0.18400
C1293       C  0.94465651  0.93789867  0.62918674    -0.26900
C1294       C  0.93014581  0.92485311  0.61124379     0.06800
C1295       C  0.94103668  0.90209982  0.60051946     0.26400
C1296       C  0.96488489  0.89161346  0.60891249    -0.11300
C1297       C  0.97859246  0.90376519  0.62789028    -0.25300
C1298       C  0.96863730  0.92757702  0.63741898     0.37200
C1299       C  0.90290129  0.93399725  0.60548570     0.06800
F1300       F  0.92848527  0.88982054  0.58212681    -0.19100
H1301       H  0.97244504  0.87362265  0.60084129     0.16600
F1302       F  0.98107398  0.93996850  0.65579934    -0.22800
H1303       H  0.93674201  0.95545749  0.63774862     0.18400
C1304       C  0.88142622  0.91623968  0.60577449     0.26400
C1305       C  0.85546415  0.92554539  0.60398261    -0.11300
C1306       C  0.85025798  0.95270817  0.60226617    -0.25300
C1307       C  0.87174484  0.97036436  0.60065785     0.37300
C1308       C  0.89775396  0.96102839  0.60227352    -0.27000
F1309       F  0.88528649  0.89009095  0.60968522    -0.19100
H1310       H  0.83934495  0.91151843  0.60531532     0.16600
F1311       F  0.86768719  0.99673362  0.59833485    -0.22800
H1312       H  0.91392779  0.97506560  0.60177777     0.18400
loop_ 
_geom_bond_atom_site_label_1 
_geom_bond_atom_site_label_2 
_geom_bond_distance 
_geom_bond_site_symmetry_2 
_ccdc_geom_bond_type 
C1            C2   1.408       .  A
C1            C6   1.411       .  A
C1         C1297   1.490   1_455  S
C2            C3   1.404       .  A
C2            H7   1.083   1_455  S
C3            C4   1.398       .  A
C3           C14   1.482       .  S
C4            C5   1.399       .  A
C4            H8   1.084       .  S
C5            C6   1.409       .  A
C5         C1277   1.484       .  S
C6            H9   1.083       .  S
C10          C11   1.402       .  A
C10          C15   1.402       .  A
C10        C1246   1.480       .  S
C11          C12   1.405   1_455  A
C11          H16   1.084       .  S
C12          C13   1.404       .  A
C12        C1257   1.480       .  S
C13          C14   1.401   1_655  A
C13          H17   1.084       .  S
C14          C15   1.405       .  A
C15          H18   1.084       .  S
C19          C20   1.405       .  A
C19          C24   1.401       .  A
C19        C1217   1.479       .  S
C20          C21   1.404       .  A
C20          H25   1.084       .  S
C21          C22   1.403       .  A
C21        C1197   1.478       .  S
C22          C23   1.402       .  A
C22          H26   1.084       .  S
C23          C24   1.402       .  A
C23          C30   1.482       .  S
C24          H27   1.084       .  S
C28          C29   1.403       .  A
C28          C33   1.408       .  A
C28        C1157   1.482       .  S
C29          C30   1.401       .  A
C29          H34   1.084       .  S
C30          C31   1.401       .  A
C31          C32   1.401       .  A
C31          H35   1.084       .  S
C32          C33   1.408       .  A
C32        C1177   1.480       .  S
C33          H36   1.083       .  S
O37          C40   1.267       .  A
O37         Cd42   2.493       .  S
C38        C1206   1.479       .  S
C38          O47   1.263       .  A
C38          O43   1.267       .  A
O39          C45   1.268       .  A
O39         Cd42   2.485   1_545  S
C40        C1286   1.485       .  S
C40          O48   1.266       .  A
C41        C1146   1.480       .  S
C41          O46   1.268       .  A
C41          O44   1.266   1_545  A
Cd42         O49   2.425       .  S
Cd42         O48   2.461       .  S
Cd42         O47   2.452       .  S
Cd42         O43   2.464       .  S
Cd42         O46   2.482   1_565  S
Cd42         O44   2.441       .  S
C45        C1126   1.476       .  S
C45          O49   1.263   1_545  A
O50          C53   1.265       .  A
O50         Cd55   2.439       .  S
C51        C1166   1.480       .  S
C51          O60   1.266       .  A
C51          O56   1.268       .  A
O52          C58   1.269       .  A
O52         Cd55   2.482       .  S
C53        C1237   1.480       .  S
C53          O61   1.268       .  A
C54        C1077   1.477       .  S
C54          O59   1.268       .  A
C54          O57   1.264       .  A
Cd55         O62   2.406       .  S
Cd55         O61   2.475       .  S
Cd55         O60   2.452       .  S
Cd55         O56   2.480       .  S
Cd55         O59   2.473       .  S
Cd55         O57   2.416       .  S
C58        C1097   1.477       .  S
C58          O62   1.266       .  A
O63          C66   1.268       .  A
O63         Cd68   2.468       .  S
C64        C1226   1.480       .  S
C64          O73   1.263       .  A
C64          O69   1.268       .  A
O65          C71   1.267       .  A
O65         Cd68   2.470   1_545  S
C66        C1306   1.482       .  S
C66          O74   1.266       .  A
C67        C1037   1.478       .  S
C67          O72   1.266   1_545  A
C67          O70   1.267       .  A
Cd68         O75   2.439       .  S
Cd68         O74   2.454       .  S
Cd68         O73   2.430       .  S
Cd68         O69   2.490       .  S
Cd68         O72   2.437       .  S
Cd68         O70   2.468   1_565  S
C71        C1057   1.479       .  S
C71          O75   1.264   1_545  A
O76          C79   1.269       .  A
O76         Cd81   2.484       .  S
C77        C1266   1.477       .  S
C77          O86   1.263       .  A
C77          O82   1.268       .  A
O78          C84   1.268       .  A
O78         Cd81   2.457       .  S
C79        C1186   1.481       .  S
C79          O87   1.264       .  A
C80         C997   1.476       .  S
C80          O85   1.267       .  A
C80          O83   1.264       .  A
Cd81         O88   2.430       .  S
Cd81         O87   2.422       .  S
Cd81         O86   2.419       .  S
Cd81         O82   2.472       .  S
Cd81         O85   2.468       .  S
Cd81         O83   2.436       .  S
C84        C1017   1.477       .  S
C84          O88   1.266       .  A
C89          C90   1.407       .  A
C89          C94   1.411       .  A
C89         C977   1.494       .  S
C90          C91   1.404       .  A
C90          H95   1.083       .  S
C91          C92   1.402       .  A
C91         C100   1.492       .  S
C92          C93   1.401       .  A
C92          H96   1.088       .  S
C93          C94   1.408       .  A
C93         C957   1.485       .  S
C94          H97   1.082       .  S
C98          C99   1.403       .  A
C98         C103   1.405       .  A
C98         C946   1.482       .  S
C99         C100   1.405       .  A
C99         H104   1.087       .  S
C100        C101   1.407       .  A
C101        C102   1.405       .  A
C101        H105   1.082       .  S
C102        C103   1.404       .  A
C102        C926   1.486       .  S
C103        H106   1.084       .  S
O107        C110   1.269       .  A
O107       Cd112   2.466       .  S
C108        C897   1.487       .  S
C108        O117   1.265       .  A
C108        O113   1.268       .  A
O109        C115   1.268       .  A
O109       Cd112   2.455       .  S
C110        C937   1.478   1_545  S
C110        O118   1.265       .  A
C111       C1066   1.477       .  S
C111        O116   1.266       .  A
C111        O114   1.265       .  A
Cd112       O119   2.425       .  S
Cd112       O118   2.429       .  S
Cd112       O117   2.460       .  S
Cd112       O113   2.494       .  S
Cd112       O116   2.467       .  S
Cd112       O114   2.433       .  S
C115        C886   1.472       .  S
C115        O119   1.264       .  A
O120        C123   1.264       .  A
O120       Cd125   2.469       .  S
C121        C857   1.483       .  S
C121        O130   1.266       .  A
C121        O126   1.267       .  A
O122        C128   1.267       .  A
O122       Cd125   2.475       .  S
C123        C986   1.482       .  S
C123        O131   1.266       .  A
C124       C1106   1.477       .  S
C124        O129   1.264       .  A
C124        O127   1.263       .  A
Cd125       O132   2.434       .  S
Cd125       O131   2.473       .  S
Cd125       O130   2.454       .  S
Cd125       O126   2.477       .  S
Cd125       O129   2.462       .  S
Cd125       O127   2.460       .  S
C128        C837   1.480       .  S
C128        O132   1.266       .  A
O133        C136   1.268       .  A
O133       Cd138   2.484       .  S
C134        C817   1.486       .  S
C134        O143   1.265       .  A
C134        O139   1.268       .  A
O135        C141   1.269       .  A
O135       Cd138   2.489       .  S
C136        C917   1.485       .  S
C136        O144   1.265       .  A
C137        C797   1.484       .  S
C137        O142   1.266       .  A
C137        O140   1.265       .  A
Cd138       O145   2.416       .  S
Cd138       O144   2.453       .  S
Cd138       O143   2.458       .  S
Cd138       O139   2.493       .  S
Cd138       O142   2.481   1_556  S
Cd138       O140   2.463   1_556  S
C141       C1026   1.478       .  S
C141        O145   1.264       .  A
C146        C147   1.402       .  A
C146        C151   1.402       .  A
C146        C866   1.480       .  S
C147        C148   1.403       .  A
C147        H152   1.084       .  S
C148        C149   1.402       .  A
C148        C777   1.479       .  S
C149        C150   1.405       .  A
C149        H153   1.082       .  S
C150        C151   1.408       .  A
C150        C159   1.490       .  S
C151        H154   1.084       .  S
C155        C156   1.412       .  A
C155        C160   1.406       .  A
C155        C906   1.490       .  S
C156        C157   1.409       .  A
C156        H161   1.083       .  S
C157        C158   1.400       .  A
C157        C826   1.482       .  S
C158        C159   1.400       .  A
C158        H162   1.084       .  S
C159        C160   1.405       .  A
C160        H163   1.083       .  S
O164        C167   1.268       .  A
O164       Cd169   2.496       .  S
C165        C786   1.481       .  S
C165        O174   1.264       .  A
C165        O170   1.268       .  A
O166        C172   1.267       .  A
O166       Cd169   2.479       .  S
C167        C966   1.483   1_545  S
C167        O175   1.264       .  A
C168        C757   1.482   1_556  S
C168        O173   1.266       .  A
C168        O171   1.266       .  A
Cd169       O176   2.449       .  S
Cd169       O175   2.433       .  S
Cd169       O174   2.442       .  S
Cd169       O170   2.480       .  S
Cd169       O173   2.463       .  S
Cd169       O171   2.464       .  S
C172       C1137   1.483       .  S
C172        O176   1.265       .  A
O177        C180   1.265       .  A
O177       Cd182   2.449       .  S
C178        C717   1.476       .  S
C178        O187   1.265       .  A
C178        O183   1.268       .  A
O179        C185   1.269       .  A
O179       Cd182   2.475       .  S
C180        C737   1.478       .  S
C180        O188   1.267       .  A
C181        C846   1.477       .  S
C181        O186   1.268       .  A
C181        O184   1.264       .  A
Cd182       O189   2.404       .  S
Cd182       O188   2.461       .  S
Cd182       O187   2.425       .  S
Cd182       O183   2.465       .  S
Cd182       O186   2.471       .  S
Cd182       O184   2.421       .  S
C185        C697   1.475       .  S
C185        O189   1.264       .  A
C190        C191   1.405       .  A
C190        C195   1.405       .  A
C190        C677   1.484       .  S
C191        C192   1.402       .  A
C191        H196   1.083       .  S
C192        C193   1.404       .  A
C192        C666   1.480       .  S
C193        C194   1.404       .  A
C193        H197   1.083       .  S
C194        C195   1.404       .  A
C194        C201   1.491       .  S
C195        H198   1.082       .  S
C199        C200   1.403       .  A
C199        C204   1.405       .  A
C199        C746   1.482       .  S
C200        C201   1.403       .  A
C200        H205   1.082       .  S
C201        C202   1.406       .  A
C202        C203   1.406       .  A
C202        H206   1.083       .  S
C203        C204   1.406       .  A
C203        C637   1.489       .  S
C204        H207   1.083       .  S
C208        C209   1.398       .  A
C208        C213   1.399       .  A
C208        C617   1.469       .  S
C209        C210   1.401       .  A
C209        H214   1.083       .  S
C210        C211   1.403   1_655  A
C210        C219   1.481       .  S
C211        C212   1.402       .  A
C211        H215   1.083       .  S
C212        C213   1.402   1_455  A
C212        C597   1.474       .  S
C213        H216   1.084       .  S
C217        C218   1.403   1_655  A
C217        C222   1.407       .  A
C217        C726   1.481   1_655  S
C218        C219   1.400   1_455  A
C218        H223   1.082       .  S
C219        C220   1.401       .  A
C220        C221   1.399       .  A
C220        H224   1.083       .  S
C221        C222   1.406       .  A
C221        C577   1.478       .  S
C222        H225   1.084       .  S
O226        C229   1.267       .  A
O226       Cd231   2.469       .  S
C227        C657   1.481       .  S
C227        O236   1.265       .  A
C227        O232   1.269       .  A
O228        C234   1.268       .  A
O228       Cd231   2.480       .  S
C229        C606   1.476       .  S
C229        O237   1.265       .  A
C230        C766   1.481       .  S
C230        O235   1.268       .  A
C230        O233   1.265       .  A
Cd231       O238   2.444       .  S
Cd231       O237   2.424       .  S
Cd231       O236   2.435       .  S
Cd231       O232   2.476       .  S
Cd231       O235   2.480       .  S
Cd231       O233   2.442       .  S
C234        C557   1.480       .  S
C234        O238   1.264       .  A
O239        C242   1.264       .  A
O239       Cd244   2.455       .  S
C240        C686   1.475       .  S
C240        O249   1.264       .  A
C240        O245   1.266       .  A
O241        C247   1.265       .  A
O241       Cd244   2.455       .  S
C242        C626   1.472       .  S
C242        O250   1.264       .  A
C243        C537   1.470       .  S
C243        O248   1.266       .  A
C243        O246   1.265       .  A
Cd244       O251   2.418       .  S
Cd244       O250   2.432       .  S
Cd244       O249   2.421       .  S
Cd244       O245   2.461       .  S
Cd244       O248   2.442       .  S
Cd244       O246   2.431       .  S
C247        C877   1.472       .  S
C247        O251   1.265       .  A
O252        C255   1.269       .  A
O252       Cd257   2.473       .  S
C253        C586   1.482       .  S
C253        O262   1.262       .  A
C253        O258   1.268       .  A
O254        C260   1.265       .  A
O254       Cd257   2.473       .  S
C255        C646   1.483       .  S
C255        O263   1.264       .  A
C256        C517   1.471       .  S
C256        O261   1.264       .  A
C256        O259   1.266       .  A
Cd257       O264   2.433       .  S
Cd257       O263   2.450       .  S
Cd257       O262   2.416       .  S
Cd257       O258   2.513       .  S
Cd257       O261   2.420       .  S
Cd257       O259   2.449       .  S
C260        C806   1.478       .  S
C260        O264   1.266       .  A
C265        C266   1.403       .  A
C265        C270   1.405   1_455  A
C265        C506   1.483       .  S
C266        C267   1.402       .  A
C266        H271   1.084       .  S
C267        C268   1.401   1_455  A
C267        C477   1.478       .  S
C268        C269   1.406       .  A
C268        H272   1.083       .  S
C269        C270   1.410       .  A
C269        C278   1.492       .  S
C270        H273   1.082       .  S
C274        C275   1.405       .  A
C274        C279   1.406       .  A
C274        C437   1.484       .  S
C275        C276   1.403       .  A
C275        H280   1.083       .  S
C276        C277   1.402       .  A
C276        C457   1.480       .  S
C277        C278   1.403       .  A
C277        H281   1.082       .  S
C278        C279   1.407       .  A
C279        H282   1.082       .  S
O283        C286   1.268       .  A
O283       Cd288   2.484       .  S
C284        C417   1.479       .  S
C284        O293   1.263       .  A
C284        O289   1.269       .  A
O285        C291   1.265       .  A
O285       Cd288   2.456       .  S
C286        C497   1.482       .  S
C286        O294   1.264       .  A
C287       C1086   1.476       .  S
C287        O292   1.265       .  A
C287        O290   1.266       .  A
Cd288       O295   2.424       .  S
Cd288       O294   2.447       .  S
Cd288       O293   2.430       .  S
Cd288       O289   2.484       .  S
Cd288       O292   2.439       .  S
Cd288       O290   2.449       .  S
C291        C706   1.474       .  S
C291        O295   1.265       .  A
O296        C299   1.269       .  A
O296       Cd301   2.471       .  S
C297        C466   1.478       .  S
C297        O306   1.265       .  A
C297        O302   1.269       .  A
O298        C304   1.268       .  A
O298       Cd301   2.453       .  S
C299        C397   1.479       .  S
C299        O307   1.265       .  A
C300       C1006   1.473       .  S
C300        O305   1.268       .  A
C300        O303   1.264       .  A
Cd301       O308   2.395       .  S
Cd301       O307   2.435       .  S
Cd301       O306   2.429       .  S
Cd301       O302   2.462       .  S
Cd301       O305   2.458       .  S
Cd301       O303   2.401       .  S
C304        C526   1.471       .  S
C304        O308   1.265       .  A
O309        C312   1.269       .  A
O309       Cd314   2.494       .  S
C310        C386   1.483       .  S
C310        O319   1.265       .  A
C310        O315   1.268       .  A
O311        C317   1.266       .  A
O311       Cd314   2.469       .  S
C312        C446   1.483       .  S
C312        O320   1.263       .  A
C313       C1046   1.475       .  S
C313        O318   1.265       .  A
C313        O316   1.268       .  A
Cd314       O321   2.434       .  S
Cd314       O320   2.431       .  S
Cd314       O319   2.449       .  S
Cd314       O315   2.477       .  S
Cd314       O318   2.416       .  S
Cd314       O316   2.469       .  S
C317        C546   1.472       .  S
C317        O321   1.264       .  A
C322        C323   1.406       .  A
C322        C327   1.405       .  A
C322        C426   1.487       .  S
C323        C324   1.406       .  A
C323        H328   1.083       .  S
C324        C325   1.404       .  A
C324        C357   1.481       .  S
C325        C326   1.403       .  A
C325        H329   1.083       .  S
C326        C327   1.404       .  A
C326        C333   1.491   1_455  S
C327        H330   1.082       .  S
C331        C332   1.408       .  A
C331        C336   1.407       .  A
C331        C377   1.489       .  S
C332        C333   1.407       .  A
C332        H337   1.082       .  S
C333        C334   1.403       .  A
C334        C335   1.400       .  A
C334        H338   1.083       .  S
C335        C336   1.404       .  A
C335        C406   1.480       .  S
C336        H339   1.083       .  S
O340        C343   1.266       .  A
O340       Cd345   2.465       .  S
C341        C486   1.482       .  S
C341        O350   1.266       .  A
C341        O346   1.265       .  A
O342        C348   1.267       .  A
O342       Cd345   2.493       .  S
C343        C366   1.481       .  S
C343        O351   1.266       .  A
C344       C1117   1.477       .  S
C344        O349   1.266       .  A
C344        O347   1.264       .  A
Cd345       O352   2.420       .  S
Cd345       O351   2.456       .  S
Cd345       O350   2.470       .  S
Cd345       O346   2.461       .  S
Cd345       O349   2.470       .  S
Cd345       O347   2.427       .  S
C348        C566   1.480       .  S
C348        O352   1.263       .  A
C353        C354   1.406       .  A
C353        C358   1.401       .  A
C353        H363   1.084       .  S
C354        C355   1.407       .  A
C354        C359   1.483       .  S
C355        C356   1.395       .  A
C355        F360   1.358       .  S
C356        C357   1.404       .  A
C356        H361   1.084       .  S
C357        C358   1.407       .  A
C358        F362   1.357       .  S
C359        C364   1.406       .  A
C359        C368   1.405       .  A
C364        C365   1.397       .  A
C364        F369   1.357       .  S
C365        C366   1.406       .  A
C365        H370   1.083       .  S
C366        C367   1.408       .  A
C367        C368   1.398       .  A
C367        F371   1.357       .  S
C368        H372   1.084       .  S
C373        C374   1.402       .  A
C373        C378   1.398       .  A
C373        H383   1.084       .  S
C374        C375   1.406       .  A
C374        C379   1.481       .  S
C375        C376   1.399       .  A
C375        F380   1.357       .  S
C376        C377   1.407       .  A
C376        H381   1.083       .  S
C377        C378   1.410       .  A
C378        F382   1.357       .  S
C379        C384   1.404       .  A
C379        C388   1.404       .  A
C384        C385   1.398       .  A
C384        F389   1.357       .  S
C385        C386   1.408       .  A
C385        H390   1.083       .  S
C386        C387   1.409       .  A
C387        C388   1.399       .  A
C387        F391   1.357       .  S
C388        H392   1.084       .  S
C393        C394   1.406       .  A
C393        C398   1.398       .  A
C393        H403   1.083       .  S
C394        C395   1.406       .  A
C394        C399   1.484       .  S
C395        C396   1.396       .  A
C395        F400   1.358       .  S
C396        C397   1.406       .  A
C396        H401   1.083       .  S
C397        C398   1.407       .  A
C398        F402   1.357       .  S
C399        C404   1.407       .  A
C399        C408   1.407       .  A
C404        C405   1.395       .  A
C404        F409   1.357       .  S
C405        C406   1.404       .  A
C405        H410   1.084       .  S
C406        C407   1.405       .  A
C407        C408   1.400       .  A
C407        F411   1.357       .  S
C408        H412   1.083       .  S
C413        C414   1.400       .  A
C413        C418   1.398       .  A
C413        H423   1.084       .  S
C414        C415   1.406       .  A
C414        C419   1.476       .  S
C415        C416   1.398       .  A
C415        F420   1.358       .  S
C416        C417   1.404       .  A
C416        H421   1.083       .  S
C417        C418   1.411       .  A
C418        F422   1.358       .  S
C419        C424   1.402       .  A
C419        C428   1.403       .  A
C424        C425   1.395       .  A
C424        F429   1.358       .  S
C425        C426   1.407       .  A
C425        H430   1.083       .  S
C426        C427   1.410       .  A
C427        C428   1.401       .  A
C427        F431   1.357       .  S
C428        H432   1.083       .  S
C433        C434   1.404       .  A
C433        C438   1.397       .  A
C433        H443   1.083       .  S
C434        C435   1.409       .  A
C434        C439   1.486       .  S
C435        C436   1.399       .  A
C435        F440   1.358       .  S
C436        C437   1.405       .  A
C436        H441   1.083       .  S
C437        C438   1.407       .  A
C438        F442   1.357       .  S
C439        C444   1.409       .  A
C439        C448   1.403       .  A
C444        C445   1.399   1_565  A
C444        F449   1.357       .  S
C445        C446   1.404       .  A
C445        H450   1.083       .  S
C446        C447   1.411       .  A
C447        C448   1.397   1_545  A
C447        F451   1.358       .  S
C448        H452   1.083       .  S
C453        C454   1.404       .  A
C453        C458   1.398       .  A
C453        H463   1.083       .  S
C454        C455   1.403       .  A
C454        C459   1.475       .  S
C455        C456   1.395       .  A
C455        F460   1.357       .  S
C456        C457   1.406       .  A
C456        H461   1.083       .  S
C457        C458   1.407       .  A
C458        F462   1.357       .  S
C459        C464   1.402       .  A
C459        C468   1.403       .  A
C464        C465   1.396       .  A
C464        F469   1.358       .  S
C465        C466   1.407       .  A
C465        H470   1.083       .  S
C466        C467   1.407       .  A
C467        C468   1.397       .  A
C467        F471   1.357       .  S
C468        H472   1.083       .  S
C473        C474   1.405       .  A
C473        C478   1.397       .  A
C473        H483   1.084       .  S
C474        C475   1.408       .  A
C474        C479   1.484       .  S
C475        C476   1.398       .  A
C475        F480   1.357       .  S
C476        C477   1.404       .  A
C476        H481   1.084       .  S
C477        C478   1.405       .  A
C478        F482   1.358       .  S
C479        C484   1.407       .  A
C479        C488   1.404       .  A
C484        C485   1.398       .  A
C484        F489   1.358       .  S
C485        C486   1.405   1_565  A
C485        H490   1.084       .  S
C486        C487   1.409       .  A
C487        C488   1.398   1_545  A
C487        F491   1.357       .  S
C488        H492   1.084       .  S
C493        C494   1.403       .  A
C493        C498   1.398       .  A
C493        H503   1.083       .  S
C494        C495   1.407       .  A
C494        C499   1.484       .  S
C495        C496   1.400       .  A
C495        F500   1.357       .  S
C496        C497   1.405       .  A
C496        H501   1.083       .  S
C497        C498   1.410       .  A
C498        F502   1.358       .  S
C499        C504   1.406       .  A
C499        C508   1.405       .  A
C504        C505   1.397       .  A
C504        F509   1.358       .  S
C505        C506   1.404       .  A
C505        H510   1.083       .  S
C506        C507   1.407       .  A
C507        C508   1.400       .  A
C507        F511   1.357       .  S
C508        H512   1.083       .  S
C513        C514   1.399       .  A
C513        C518   1.392       .  A
C513        H523   1.084       .  S
C514        C515   1.404       .  A
C514        C519   1.468       .  S
C515        C516   1.395       .  A
C515        F520   1.358       .  S
C516        C517   1.405       .  A
C516        H521   1.083       .  S
C517        C518   1.409       .  A
C518        F522   1.357       .  S
C519        C524   1.402       .  A
C519        C528   1.402       .  A
C524        C525   1.390       .  A
C524        F529   1.358       .  S
C525        C526   1.405       .  A
C525        H530   1.084       .  S
C526        C527   1.408       .  A
C527        C528   1.396       .  A
C527        F531   1.357       .  S
C528        H532   1.084       .  S
C533        C534   1.404       .  A
C533        C538   1.396       .  A
C533        H543   1.083       .  S
C534        C535   1.407       .  A
C534        C539   1.478       .  S
C535        C536   1.394       .  A
C535        F540   1.358       .  S
C536        C537   1.403       .  A
C536        H541   1.083       .  S
C537        C538   1.406       .  A
C538        F542   1.358       .  S
C539        C544   1.408       .  A
C539        C548   1.402       .  A
C544        C545   1.397       .  A
C544        F549   1.358       .  S
C545        C546   1.403       .  A
C545        H550   1.083       .  S
C546        C547   1.407       .  A
C547        C548   1.394       .  A
C547        F551   1.357       .  S
C548        H552   1.083       .  S
C553        C554   1.401       .  A
C553        C558   1.399       .  A
C553        H563   1.083       .  S
C554        C555   1.406       .  A
C554        C559   1.477       .  S
C555        C556   1.398       .  A
C555        F560   1.358       .  S
C556        C557   1.404       .  A
C556        H561   1.083       .  S
C557        C558   1.410       .  A
C558        F562   1.357       .  S
C559        C564   1.406       .  A
C559        C568   1.399       .  A
C564        C565   1.403       .  A
C564        F569   1.358       .  S
C565        C566   1.407       .  A
C565        H570   1.083       .  S
C566        C567   1.409       .  A
C567        C568   1.392       .  A
C567        F571   1.357       .  S
C568        H572   1.084       .  S
C573        C574   1.406       .  A
C573        C578   1.396       .  A
C573        H583   1.083       .  S
C574        C575   1.406       .  A
C574        C579   1.483       .  S
C575        C576   1.398       .  A
C575        F580   1.357       .  S
C576        C577   1.406       .  A
C576        H581   1.083       .  S
C577        C578   1.403       .  A
C578        F582   1.358       .  S
C579        C584   1.403       .  A
C579        C588   1.407       .  A
C584        C585   1.392       .  A
C584        F589   1.358       .  S
C585        C586   1.406       .  A
C585        H590   1.083       .  S
C586        C587   1.409       .  A
C587        C588   1.404       .  A
C587        F591   1.357       .  S
C588        H592   1.083       .  S
C593        C594   1.402       .  A
C593        C598   1.394       .  A
C593        H603   1.084       .  S
C594        C595   1.404       .  A
C594        C599   1.471       .  S
C595        C596   1.395       .  A
C595        F600   1.357       .  S
C596        C597   1.404       .  A
C596        H601   1.083       .  S
C597        C598   1.406       .  A
C598        F602   1.358       .  S
C599        C604   1.402       .  A
C599        C608   1.403       .  A
C604        C605   1.393       .  A
C604        F609   1.358       .  S
C605        C606   1.406       .  A
C605        H610   1.083       .  S
C606        C607   1.409       .  A
C607        C608   1.398       .  A
C607        F611   1.357       .  S
C608        H612   1.083       .  S
C613        C614   1.401       .  A
C613        C618   1.395       .  A
C613        H623   1.084       .  S
C614        C615   1.402       .  A
C614        C619   1.466       .  S
C615        C616   1.393       .  A
C615        F620   1.358       .  S
C616        C617   1.403       .  A
C616        H621   1.084       .  S
C617        C618   1.405       .  A
C618        F622   1.358       .  S
C619        C624   1.400       .  A
C619        C628   1.401       .  A
C624        C625   1.392       .  A
C624        F629   1.358       .  S
C625        C626   1.405       .  A
C625        H630   1.084       .  S
C626        C627   1.409       .  A
C627        C628   1.397       .  A
C627        F631   1.358       .  S
C628        H632   1.083       .  S
C633        C634   1.403       .  A
C633        C638   1.395       .  A
C633        H643   1.084       .  S
C634        C635   1.408       .  A
C634        C639   1.486       .  S
C635        C636   1.402       .  A
C635        F640   1.357       .  S
C636        C637   1.407       .  A
C636        H641   1.083       .  S
C637        C638   1.409       .  A
C638        F642   1.358       .  S
C639        C644   1.408       .  A
C639        C648   1.404       .  A
C644        C645   1.397       .  A
C644        F649   1.358       .  S
C645        C646   1.404       .  A
C645        H650   1.083       .  S
C646        C647   1.411       .  A
C647        C648   1.400       .  A
C647        F651   1.357       .  S
C648        H652   1.083       .  S
C653        C654   1.398       .  A
C653        C658   1.398       .  A
C653        H663   1.084       .  S
C654        C655   1.403       .  A
C654        C659   1.471       .  S
C655        C656   1.398       .  A
C655        F660   1.358       .  S
C656        C657   1.406       .  A
C656        H661   1.083       .  S
C657        C658   1.412       .  A
C658        F662   1.357       .  S
C659        C664   1.401       .  A
C659        C668   1.402       .  A
C664        C665   1.395       .  A
C664        F669   1.357       .  S
C665        C666   1.404       .  A
C665        H670   1.084       .  S
C666        C667   1.409       .  A
C667        C668   1.400       .  A
C667        F671   1.358       .  S
C668        H672   1.083       .  S
C673        C674   1.404       .  A
C673        C678   1.399       .  A
C673        H683   1.083       .  S
C674        C675   1.403       .  A
C674        C679   1.475       .  S
C675        C676   1.392       .  A
C675        F680   1.358       .  S
C676        C677   1.406       .  A
C676        H681   1.083       .  S
C677        C678   1.409       .  A
C678        F682   1.357       .  S
C679        C684   1.403       .  A
C679        C688   1.404       .  A
C684        C685   1.393       .  A
C684        F689   1.358       .  S
C685        C686   1.406       .  A
C685        H690   1.083       .  S
C686        C687   1.408       .  A
C687        C688   1.397       .  A
C687        F691   1.357       .  S
C688        H692   1.083       .  S
C693        C694   1.398       .  A
C693        C698   1.391       .  A
C693        H703   1.084       .  S
C694        C695   1.402       .  A
C694        C699   1.465       .  S
C695        C696   1.399       .  A
C695        F700   1.357       .  S
C696        C697   1.406       .  A
C696        H701   1.083       .  S
C697        C698   1.410       .  A
C698        F702   1.358       .  S
C699        C704   1.400       .  A
C699        C708   1.400       .  A
C704        C705   1.392       .  A
C704        F709   1.358       .  S
C705        C706   1.405       .  A
C705        H710   1.084       .  S
C706        C707   1.410       .  A
C707        C708   1.398       .  A
C707        F711   1.357       .  S
C708        H712   1.083       .  S
C713        C714   1.400       .  A
C713        C718   1.395       .  A
C713        H723   1.084       .  S
C714        C715   1.406       .  A
C714        C719   1.474       .  S
C715        C716   1.397       .  A
C715        F720   1.358       .  S
C716        C717   1.405       .  A
C716        H721   1.083       .  S
C717        C718   1.409       .  A
C718        F722   1.357       .  S
C719        C724   1.405       .  A
C719        C728   1.400       .  A
C724        C725   1.398       .  A
C724        F729   1.358       .  S
C725        C726   1.404       .  A
C725        H730   1.083       .  S
C726        C727   1.410       .  A
C727        C728   1.396       .  A
C727        F731   1.358       .  S
C728        H732   1.083       .  S
C733        C734   1.406       .  A
C733        C738   1.396       .  A
C733        H743   1.084       .  S
C734        C735   1.408       .  A
C734        C739   1.485       .  S
C735        C736   1.398       .  A
C735        F740   1.357       .  S
C736        C737   1.406       .  A
C736        H741   1.083       .  S
C737        C738   1.406       .  A
C738        F742   1.357       .  S
C739        C744   1.409       .  A
C739        C748   1.404       .  A
C744        C745   1.400       .  A
C744        F749   1.357       .  S
C745        C746   1.405       .  A
C745        H750   1.083       .  S
C746        C747   1.407       .  A
C747        C748   1.393       .  A
C747        F751   1.358       .  S
C748        H752   1.083       .  S
C753        C754   1.402       .  A
C753        C758   1.399       .  A
C753        H763   1.084       .  S
C754        C755   1.406       .  A
C754        C759   1.480       .  S
C755        C756   1.398       .  A
C755        F760   1.358       .  S
C756        C757   1.406       .  A
C756        H761   1.083       .  S
C757        C758   1.409       .  A
C758        F762   1.357   1_554  S
C759        C764   1.405       .  A
C759        C768   1.403       .  A
C764        C765   1.396       .  A
C764        F769   1.358       .  S
C765        C766   1.406       .  A
C765        H770   1.083       .  S
C766        C767   1.409       .  A
C767        C768   1.400       .  A
C767        F771   1.357       .  S
C768        H772   1.083       .  S
C773        C774   1.403       .  A
C773        C778   1.397       .  A
C773        H783   1.084       .  S
C774        C775   1.407       .  A
C774        C779   1.479       .  S
C775        C776   1.396       .  A
C775        F780   1.357       .  S
C776        C777   1.403       .  A
C776        H781   1.084       .  S
C777        C778   1.408       .  A
C778        F782   1.358       .  S
C779        C784   1.406       .  A
C779        C788   1.402       .  A
C784        C785   1.398       .  A
C784        F789   1.357       .  S
C785        C786   1.405       .  A
C785        H790   1.084       .  S
C786        C787   1.410       .  A
C787        C788   1.396       .  A
C787        F791   1.357       .  S
C788        H792   1.083       .  S
C793        C794   1.401       .  A
C793        C798   1.399       .  A
C793        H803   1.084       .  S
C794        C795   1.401       .  A
C794        C799   1.471       .  S
C795        C796   1.398       .  A
C795        F800   1.358       .  S
C796        C797   1.408       .  A
C796        H801   1.084       .  S
C797        C798   1.410       .  A
C798        F802   1.357       .  S
C799        C804   1.400       .  A
C799        C808   1.402       .  A
C804        C805   1.391       .  A
C804        F809   1.357       .  S
C805        C806   1.404       .  A
C805        H810   1.084       .  S
C806        C807   1.412       .  A
C807        C808   1.403       .  A
C807        F811   1.358       .  S
C808        H812   1.083       .  S
C813        C814   1.405       .  A
C813        C818   1.401       .  A
C813        H823   1.084       .  S
C814        C815   1.403       .  A
C814        C819   1.483       .  S
C815        C816   1.399       .  A
C815        F820   1.357       .  S
C816        C817   1.408       .  A
C816        H821   1.083       .  S
C817        C818   1.409       .  A
C818        F822   1.357       .  S
C819        C824   1.409       .  A
C819        C828   1.401       .  A
C824        C825   1.404       .  A
C824        F829   1.357       .  S
C825        C826   1.404       .  A
C825        H830   1.083       .  S
C826        C827   1.408       .  A
C827        C828   1.395       .  A
C827        F831   1.358       .  S
C828        H832   1.084       .  S
C833        C834   1.400       .  A
C833        C838   1.392   1_554  A
C833        H843   1.084       .  S
C834        C835   1.405   1_554  A
C834        C839   1.474       .  S
C835        C836   1.401       .  A
C835        F840   1.358       .  S
C836        C837   1.408       .  A
C836        H841   1.083       .  S
C837        C838   1.408       .  A
C838        F842   1.357       .  S
C839        C844   1.403       .  A
C839        C848   1.404       .  A
C844        C845   1.394       .  A
C844        F849   1.358       .  S
C845        C846   1.406       .  A
C845        H850   1.083       .  S
C846        C847   1.407       .  A
C847        C848   1.397       .  A
C847        F851   1.357       .  S
C848        H852   1.084       .  S
C853        C854   1.406       .  A
C853        C858   1.400       .  A
C853        H863   1.083       .  S
C854        C855   1.407       .  A
C854        C859   1.486       .  S
C855        C856   1.397       .  A
C855        F860   1.357       .  S
C856        C857   1.405       .  A
C856        H861   1.083       .  S
C857        C858   1.409       .  A
C858        F862   1.357       .  S
C859        C864   1.409       .  A
C859        C868   1.405       .  A
C864        C865   1.399       .  A
C864        F869   1.357       .  S
C865        C866   1.403       .  A
C865        H870   1.084       .  S
C866        C867   1.407       .  A
C867        C868   1.397       .  A
C867        F871   1.358       .  S
C868        H872   1.084       .  S
C873        C874   1.401       .  A
C873        C878   1.399       .  A
C873        H883   1.083       .  S
C874        C875   1.403       .  A
C874        C879   1.469   1_554  S
C875        C876   1.389       .  A
C875        F880   1.358   1_554  S
C876        C877   1.403       .  A
C876        H881   1.083       .  S
C877        C878   1.410       .  A
C878        F882   1.357       .  S
C879        C884   1.404       .  A
C879        C888   1.400       .  A
C884        C885   1.393       .  A
C884        F889   1.358       .  S
C885        C886   1.403       .  A
C885        H890   1.084       .  S
C886        C887   1.409       .  A
C887        C888   1.396       .  A
C887        F891   1.358       .  S
C888        H892   1.083       .  S
C893        C894   1.405       .  A
C893        C898   1.402       .  A
C893        H903   1.084       .  S
C894        C895   1.404       .  A
C894        C899   1.485       .  S
C895        C896   1.399       .  A
C895        F900   1.357       .  S
C896        C897   1.408       .  A
C896        H901   1.084       .  S
C897        C898   1.409       .  A
C898        F902   1.357       .  S
C899        C904   1.408       .  A
C899        C908   1.401       .  A
C904        C905   1.404       .  A
C904        F909   1.357       .  S
C905        C906   1.406       .  A
C905        H910   1.084       .  S
C906        C907   1.410       .  A
C907        C908   1.397       .  A
C907        F911   1.358       .  S
C908        H912   1.084       .  S
C913        C914   1.404       .  A
C913        C918   1.400       .  A
C913        H923   1.084       .  S
C914        C915   1.404       .  A
C914        C919   1.481       .  S
C915        C916   1.399       .  A
C915        F920   1.358       .  S
C916        C917   1.408       .  A
C916        H921   1.083       .  S
C917        C918   1.409       .  A
C918        F922   1.357       .  S
C919        C924   1.406       .  A
C919        C928   1.402       .  A
C924        C925   1.400       .  A
C924        F929   1.357       .  S
C925        C926   1.406       .  A
C925        H930   1.082       .  S
C926        C927   1.409       .  A
C927        C928   1.398       .  A
C927        F931   1.358       .  S
C928        H932   1.083       .  S
C933        C934   1.401       .  A
C933        C938   1.398       .  A
C933        H943   1.084       .  S
C934        C935   1.402       .  A
C934        C939   1.472       .  S
C935        C936   1.396       .  A
C935        F940   1.358       .  S
C936        C937   1.408       .  A
C936        H941   1.083       .  S
C937        C938   1.408       .  A
C938        F942   1.357   1_565  S
C939        C944   1.404       .  A
C939        C948   1.401       .  A
C944        C945   1.397       .  A
C944        F949   1.358       .  S
C945        C946   1.405       .  A
C945        H950   1.084       .  S
C946        C947   1.409       .  A
C947        C948   1.398       .  A
C947        F951   1.357       .  S
C948        H952   1.083       .  S
C953        C954   1.404       .  A
C953        C958   1.402       .  A
C953        H963   1.083       .  S
C954        C955   1.402       .  A
C954        C959   1.477       .  S
C955        C956   1.396       .  A
C955        F960   1.358       .  S
C956        C957   1.407       .  A
C956        H961   1.083       .  S
C957        C958   1.408       .  A
C958        F962   1.357       .  S
C959        C964   1.401       .  A
C959        C968   1.404       .  A
C964        C965   1.396       .  A
C964        F969   1.357       .  S
C965        C966   1.408       .  A
C965        H970   1.084       .  S
C966        C967   1.410       .  A
C967        C968   1.402       .  A
C967        F971   1.357   1_565  S
C968        H972   1.083       .  S
C973        C974   1.400       .  A
C973        C978   1.395       .  A
C973        H983   1.083       .  S
C974        C975   1.406       .  A
C974        C979   1.480       .  S
C975        C976   1.403       .  A
C975        F980   1.357       .  S
C976        C977   1.409       .  A
C976        H981   1.082       .  S
C977        C978   1.413       .  A
C978        F982   1.357       .  S
C979        C984   1.405       .  A
C979        C988   1.403       .  A
C984        C985   1.398       .  A
C984        F989   1.358       .  S
C985        C986   1.405       .  A
C985        H990   1.083       .  S
C986        C987   1.410       .  A
C987        C988   1.400       .  A
C987        F991   1.357       .  S
C988        H992   1.083       .  S
C993        C994   1.401       .  A
C993        C998   1.395       .  A
C993       H1003   1.084       .  S
C994        C995   1.405       .  A
C994        C999   1.473       .  S
C995        C996   1.396       .  A
C995       F1000   1.358       .  S
C996        C997   1.405       .  A
C996       H1001   1.084       .  S
C997        C998   1.409       .  A
C998       F1002   1.357       .  S
C999       C1004   1.405       .  A
C999       C1008   1.401       .  A
C1004      C1005   1.397       .  A
C1004      F1009   1.357       .  S
C1005      C1006   1.405       .  A
C1005      H1010   1.083       .  S
C1006      C1007   1.409       .  A
C1007      C1008   1.391       .  A
C1007      F1011   1.358       .  S
C1008      H1012   1.084       .  S
C1013      C1014   1.402       .  A
C1013      C1018   1.395       .  A
C1013      H1023   1.084       .  S
C1014      C1015   1.405       .  A
C1014      C1019   1.477       .  S
C1015      C1016   1.398       .  A
C1015      F1020   1.357       .  S
C1016      C1017   1.405       .  A
C1016      H1021   1.083       .  S
C1017      C1018   1.408       .  A
C1018      F1022   1.358       .  S
C1019      C1024   1.406       .  A
C1019      C1028   1.401       .  A
C1024      C1025   1.401       .  A
C1024      F1029   1.357       .  S
C1025      C1026   1.406       .  A
C1025      H1030   1.083       .  S
C1026      C1027   1.409       .  A
C1027      C1028   1.393       .  A
C1027      F1031   1.358       .  S
C1028      H1032   1.084       .  S
C1033      C1034   1.402       .  A
C1033      C1038   1.394       .  A
C1033      H1043   1.084       .  S
C1034      C1035   1.404       .  A
C1034      C1039   1.475       .  S
C1035      C1036   1.399       .  A
C1035      F1040   1.357       .  S
C1036      C1037   1.407       .  A
C1036      H1041   1.083       .  S
C1037      C1038   1.408       .  A
C1038      F1042   1.357   1_545  S
C1039      C1044   1.404       .  A
C1039      C1048   1.404       .  A
C1044      C1045   1.393       .  A
C1044      F1049   1.358       .  S
C1045      C1046   1.404       .  A
C1045      H1050   1.084       .  S
C1046      C1047   1.408       .  A
C1047      C1048   1.399       .  A
C1047      F1051   1.357       .  S
C1048      H1052   1.084       .  S
C1053      C1054   1.404       .  A
C1053      C1058   1.397       .  A
C1053      H1063   1.083       .  S
C1054      C1055   1.404       .  A
C1054      C1059   1.478       .  S
C1055      C1056   1.396   1_545  A
C1055      F1060   1.358   1_545  S
C1056      C1057   1.407   1_565  A
C1056      H1061   1.083       .  S
C1057      C1058   1.407       .  A
C1058      F1062   1.357       .  S
C1059      C1064   1.406       .  A
C1059      C1068   1.402       .  A
C1064      C1065   1.399       .  A
C1064      F1069   1.357       .  S
C1065      C1066   1.406       .  A
C1065      H1070   1.083       .  S
C1066      C1067   1.407       .  A
C1067      C1068   1.394       .  A
C1067      F1071   1.357       .  S
C1068      H1072   1.084       .  S
C1073      C1074   1.399       .  A
C1073      C1078   1.393       .  A
C1073      H1083   1.084       .  S
C1074      C1075   1.403       .  A
C1074      C1079   1.471       .  S
C1075      C1076   1.399       .  A
C1075      F1080   1.357       .  S
C1076      C1077   1.406       .  A
C1076      H1081   1.083       .  S
C1077      C1078   1.410       .  A
C1078      F1082   1.358       .  S
C1079      C1084   1.403       .  A
C1079      C1088   1.400       .  A
C1084      C1085   1.396       .  A
C1084      F1089   1.358       .  S
C1085      C1086   1.405       .  A
C1085      H1090   1.083       .  S
C1086      C1087   1.409       .  A
C1087      C1088   1.395       .  A
C1087      F1091   1.357       .  S
C1088      H1092   1.084       .  S
C1093      C1094   1.405       .  A
C1093      C1098   1.402       .  A
C1093      H1103   1.083       .  S
C1094      C1095   1.404       .  A
C1094      C1099   1.477       .  S
C1095      C1096   1.390       .  A
C1095      F1100   1.358       .  S
C1096      C1097   1.404       .  A
C1096      H1101   1.084       .  S
C1097      C1098   1.409       .  A
C1098      F1102   1.357       .  S
C1099      C1104   1.405       .  A
C1099      C1108   1.402       .  A
C1104      C1105   1.396       .  A
C1104      F1109   1.358       .  S
C1105      C1106   1.405       .  A
C1105      H1110   1.083       .  S
C1106      C1107   1.409       .  A
C1107      C1108   1.398       .  A
C1107      F1111   1.357       .  S
C1108      H1112   1.084       .  S
C1113      C1114   1.402       .  A
C1113      C1118   1.399       .  A
C1113      H1123   1.083       .  S
C1114      C1115   1.400       .  A
C1114      C1119   1.468       .  S
C1115      C1116   1.393       .  A
C1115      F1120   1.358       .  S
C1116      C1117   1.406       .  A
C1116      H1121   1.083       .  S
C1117      C1118   1.410       .  A
C1118      F1122   1.357       .  S
C1119      C1124   1.401       .  A
C1119      C1128   1.402       .  A
C1124      C1125   1.393       .  A
C1124      F1129   1.358       .  S
C1125      C1126   1.406       .  A
C1125      H1130   1.083   1_545  S
C1126      C1127   1.408       .  A
C1127      C1128   1.400       .  A
C1127      F1131   1.357       .  S
C1128      H1132   1.083       .  S
C1133      C1134   1.407       .  A
C1133      C1138   1.400       .  A
C1133      H1143   1.083       .  S
C1134      C1135   1.407       .  A
C1134      C1139   1.488       .  S
C1135      C1136   1.397       .  A
C1135      F1140   1.357       .  S
C1136      C1137   1.406       .  A
C1136      H1141   1.083       .  S
C1137      C1138   1.408       .  A
C1138      F1142   1.357       .  S
C1139      C1144   1.408       .  A
C1139      C1148   1.407       .  A
C1144      C1145   1.396       .  A
C1144      F1149   1.357       .  S
C1145      C1146   1.403       .  A
C1145      H1150   1.084       .  S
C1146      C1147   1.408       .  A
C1147      C1148   1.402       .  A
C1147      F1151   1.358       .  S
C1148      H1152   1.083       .  S
C1153      C1154   1.405       .  A
C1153      C1158   1.401       .  A
C1153      H1163   1.083       .  S
C1154      C1155   1.404       .  A
C1154      C1159   1.480       .  S
C1155      C1156   1.396       .  A
C1155      F1160   1.357       .  S
C1156      C1157   1.405       .  A
C1156      H1161   1.084       .  S
C1157      C1158   1.406       .  A
C1158      F1162   1.357       .  S
C1159      C1164   1.403       .  A
C1159      C1168   1.405       .  A
C1164      C1165   1.398       .  A
C1164      F1169   1.357       .  S
C1165      C1166   1.407       .  A
C1165      H1170   1.083       .  S
C1166      C1167   1.407       .  A
C1167      C1168   1.400       .  A
C1167      F1171   1.357       .  S
C1168      H1172   1.083       .  S
C1173      C1174   1.402       .  A
C1173      C1178   1.399       .  A
C1173      H1183   1.083       .  S
C1174      C1175   1.406       .  A
C1174      C1179   1.477       .  S
C1175      C1176   1.397       .  A
C1175      F1180   1.358       .  S
C1176      C1177   1.402       .  A
C1176      H1181   1.084       .  S
C1177      C1178   1.409       .  A
C1178      F1182   1.358       .  S
C1179      C1184   1.406       .  A
C1179      C1188   1.400       .  A
C1184      C1185   1.401       .  A
C1184      F1189   1.358       .  S
C1185      C1186   1.406       .  A
C1185      H1190   1.083       .  S
C1186      C1187   1.410       .  A
C1187      C1188   1.394       .  A
C1187      F1191   1.357       .  S
C1188      H1192   1.084       .  S
C1193      C1194   1.404       .  A
C1193      C1198   1.402       .  A
C1193      H1203   1.083       .  S
C1194      C1195   1.404       .  A
C1194      C1199   1.476       .  S
C1195      C1196   1.393       .  A
C1195      F1200   1.358       .  S
C1196      C1197   1.403       .  A
C1196      H1201   1.084       .  S
C1197      C1198   1.408       .  A
C1198      F1202   1.358       .  S
C1199      C1204   1.404       .  A
C1199      C1208   1.402       .  A
C1204      C1205   1.395       .  A
C1204      F1209   1.357       .  S
C1205      C1206   1.404       .  A
C1205      H1210   1.084       .  S
C1206      C1207   1.411       .  A
C1207      C1208   1.400       .  A
C1207      F1211   1.358       .  S
C1208      H1212   1.083       .  S
C1213      C1214   1.404       .  A
C1213      C1218   1.395       .  A
C1213      H1223   1.084       .  S
C1214      C1215   1.409       .  A
C1214      C1219   1.484       .  S
C1215      C1216   1.398       .  A
C1215      F1220   1.357       .  S
C1216      C1217   1.403       .  A
C1216      H1221   1.083       .  S
C1217      C1218   1.407       .  A
C1218      F1222   1.358       .  S
C1219      C1224   1.406       .  A
C1219      C1228   1.407       .  A
C1224      C1225   1.394       .  A
C1224      F1229   1.357       .  S
C1225      C1226   1.405       .  A
C1225      H1230   1.083       .  S
C1226      C1227   1.407       .  A
C1227      C1228   1.400       .  A
C1227      F1231   1.357       .  S
C1228      H1232   1.083       .  S
C1233      C1234   1.404       .  A
C1233      C1238   1.398       .  A
C1233      H1243   1.084       .  S
C1234      C1235   1.405       .  A
C1234      C1239   1.480       .  S
C1235      C1236   1.397       .  A
C1235      F1240   1.358       .  S
C1236      C1237   1.407       .  A
C1236      H1241   1.083       .  S
C1237      C1238   1.408       .  A
C1238      F1242   1.357       .  S
C1239      C1244   1.407       .  A
C1239      C1248   1.404       .  A
C1244      C1245   1.398       .  A
C1244      F1249   1.358       .  S
C1245      C1246   1.404       .  A
C1245      H1250   1.083       .  S
C1246      C1247   1.406       .  A
C1247      C1248   1.397       .  A
C1247      F1251   1.357       .  S
C1248      H1252   1.083       .  S
C1253      C1254   1.402       .  A
C1253      C1258   1.393       .  A
C1253      H1263   1.084       .  S
C1254      C1255   1.405       .  A
C1254      C1259   1.475       .  S
C1255      C1256   1.398       .  A
C1255      F1260   1.358       .  S
C1256      C1257   1.406       .  A
C1256      H1261   1.083       .  S
C1257      C1258   1.407       .  A
C1258      F1262   1.358       .  S
C1259      C1264   1.406       .  A
C1259      C1268   1.400       .  A
C1264      C1265   1.397       .  A
C1264      F1269   1.358       .  S
C1265      C1266   1.405       .  A
C1265      H1270   1.083       .  S
C1266      C1267   1.410       .  A
C1267      C1268   1.394       .  A
C1267      F1271   1.358       .  S
C1268      H1272   1.084       .  S
C1273      C1274   1.404       .  A
C1273      C1278   1.400       .  A
C1273      H1283   1.084       .  S
C1274      C1275   1.404       .  A
C1274      C1279   1.481       .  S
C1275      C1276   1.399       .  A
C1275      F1280   1.358       .  S
C1276      C1277   1.408       .  A
C1276      H1281   1.083       .  S
C1277      C1278   1.406       .  A
C1278      F1282   1.357       .  S
C1279      C1284   1.406       .  A
C1279      C1288   1.401       .  A
C1284      C1285   1.402       .  A
C1284      F1289   1.358       .  S
C1285      C1286   1.407       .  A
C1285      H1290   1.083       .  S
C1286      C1287   1.410       .  A
C1287      C1288   1.399       .  A
C1287      F1291   1.357       .  S
C1288      H1292   1.084       .  S
C1293      C1294   1.406       .  A
C1293      C1298   1.400       .  A
C1293      H1303   1.083       .  S
C1294      C1295   1.407       .  A
C1294      C1299   1.489       .  S
C1295      C1296   1.400       .  A
C1295      F1300   1.358       .  S
C1296      C1297   1.408       .  A
C1296      H1301   1.083       .  S
C1297      C1298   1.408       .  A
C1298      F1302   1.357       .  S
C1299      C1304   1.409       .  A
C1299      C1308   1.406       .  A
C1304      C1305   1.398       .  A
C1304      F1309   1.357       .  S
C1305      C1306   1.404       .  A
C1305      H1310   1.083       .  S
C1306      C1307   1.409       .  A
C1307      C1308   1.400       .  A
C1307      F1311   1.358       .  S
C1308      H1312   1.083       .  S
