geometry optimzed in LAMMPS
_audit_creation_date              2020-11-30 
_audit_creation_method            'lammps2cif' 
_symmetry_space_group_name_H-M    'P1' 
_symmetry_Int_Tables_number       1 
_symmetry_cell_setting            triclinic 
loop_ 
_symmetry_equiv_pos_as_xyz 
  x,y,z 
_cell_length_a                    42.93764616 
_cell_length_b                    42.716194664704304 
_cell_length_c                    42.79945787006636 
_cell_angle_alpha                 90.0413290685651 
_cell_angle_beta                  89.74673009426715 
_cell_angle_gamma                 89.85509272461721 
loop_ 
_atom_site_label 
_atom_site_type_symbol 
_atom_site_fract_x 
_atom_site_fract_y 
_atom_site_fract_z 
_atom_site_charge 
O1          O  0.45390813  0.13276785  0.13574906    -0.85700
O2          O  0.44391768  0.07781943  0.16362397    -0.82700
C3          C  0.44467292  0.05594931  0.18295080     0.97800
O4          O  0.44524413  0.06172735  0.21202945    -0.82700
O5          O  0.50393832  0.08676052  0.21761814    -0.85400
C6          C  0.52658245  0.10535127  0.21790680     1.02300
O7          O  0.52187736  0.13468662  0.21530490    -0.78100
O8          O  0.49998195  0.14058373  0.15633109    -0.78300
C9          C  0.48344258  0.13416890  0.13311945     1.02300
O10         O  0.41063595  0.16064509  0.18163160    -0.85700
O11         O  0.39726538  0.10467016  0.20671643    -0.82700
C12         C  0.39760929  0.10941090  0.23614995     0.97800
O13         O  0.42301697  0.11310335  0.25013706    -0.82800
O14         O  0.48224229  0.13357190  0.26168402    -0.85400
C15         C  0.48001771  0.16326941  0.26033657     1.02300
O16         O  0.47172567  0.17604762  0.23532133    -0.78200
O17         O  0.45386569  0.18667964  0.17488765    -0.78300
C18         C  0.42435628  0.18605072  0.17696488     1.02300
Cr19       Cr  0.42853947  0.11947718  0.17381511     1.93700
Cr20       Cr  0.46322045  0.10053187  0.23305910     1.93200
Cr21       Cr  0.48487681  0.15733756  0.19574454     1.39100
O22         O  0.45877640  0.12582086  0.20076742    -1.23400
O23         O  0.13387650  0.20469671  0.38755901    -0.85700
O24         O  0.15986918  0.15375779  0.41913887    -0.82700
C25         C  0.18494389  0.16797974  0.42403472     0.97800
O26         O  0.18577287  0.18867995  0.44517788    -0.82700
O27         O  0.16461506  0.23556854  0.48474068    -0.85400
C28         C  0.15883454  0.26092624  0.47069711     1.02300
O29         O  0.13639142  0.26295921  0.45163451    -0.78100
O30         O  0.09985045  0.23958139  0.40433017    -0.78300
C31         C  0.12077236  0.23128237  0.38495127     1.02300
O32         O  0.07471569  0.18560524  0.40890750    -0.85700
O33         O  0.10174008  0.14127624  0.44864295    -0.82700
C34         C  0.11858695  0.13184108  0.47105585     0.97800
O35         O  0.14417007  0.14535630  0.47678503    -0.82800
O36         O  0.12096617  0.19352485  0.51306167    -0.85400
C37         C  0.10164346  0.21557540  0.51740271     1.02300
O38         O  0.09649396  0.23558351  0.49648262    -0.78200
O39         O  0.06100432  0.20751052  0.45209865    -0.78300
C40         C  0.05514561  0.18843006  0.43046368     1.02300
Cr41       Cr  0.11792841  0.17301375  0.41808799     1.93700
Cr42       Cr  0.15195138  0.19142655  0.47779232     1.93200
Cr43       Cr  0.09997085  0.23390877  0.45072706     1.39100
O44         O  0.12366247  0.19992167  0.44907894    -1.23400
O45         O  0.20215523  0.39658537  0.13639056    -0.85700
O46         O  0.15338569  0.43010031  0.16241928    -0.82700
C47         C  0.16941874  0.43575279  0.18631770     0.97800
O48         O  0.18906984  0.45770593  0.18526635    -0.82700
O49         O  0.23303676  0.49738592  0.15977477    -0.85400
C50         C  0.25809131  0.48239560  0.15571955     1.02300
O51         O  0.25997233  0.46109503  0.13519316    -0.78100
O52         O  0.23711190  0.41115687  0.10158440    -0.78300
C53         C  0.22826432  0.39261342  0.12304409     1.02300
O54         O  0.18170702  0.41375334  0.07603507    -0.85700
O55         O  0.13886514  0.45553357  0.10220147    -0.82700
C56         C  0.12913110  0.47827546  0.11857691     0.97800
O57         O  0.14299132  0.48554120  0.14361936    -0.82800
O58         O  0.18910728  0.52060876  0.11603123    -0.85400
C59         C  0.21087712  0.52411958  0.09634468     1.02300
O60         O  0.23157062  0.50344717  0.09247322    -0.78200
O61         O  0.20481610  0.45589315  0.06010701    -0.78300
C62         C  0.18734056  0.43292737  0.05456883     1.02300
Cr63       Cr  0.17071272  0.42615019  0.11947225     1.93700
Cr64       Cr  0.18909504  0.48805886  0.14945522     1.93200
Cr65       Cr  0.23096007  0.45767029  0.09891743     1.39100
O66         O  0.19737421  0.45748057  0.12278836    -1.23400
O67         O  0.95358354  0.38819144  0.86480610    -0.85700
O68         O  0.91027028  0.41681352  0.82604905    -0.82700
C69         C  0.92941287  0.43852765  0.82142062     0.97800
O70         O  0.95116829  0.43428048  0.80203918    -0.82700
O71         O  0.99698821  0.40380100  0.77016824    -0.85400
C72         C  0.01874904  0.39836152  0.78917816     1.02300
O73         O  0.01610710  0.37739531  0.80989199    -0.78100
O74         O  0.98332607  0.34738983  0.85621631    -0.78300
C75         C  0.97768122  0.37233988  0.87130028     1.02300
O76         O  0.92763010  0.32847173  0.84773144    -0.85700
O77         O  0.89209583  0.35764533  0.80217207    -0.82700
C78         C  0.88689366  0.37308228  0.77743863     0.97800
O79         O  0.90477850  0.39541089  0.76951998    -0.82800
O80         O  0.95317480  0.36322614  0.74115940    -0.85400
C81         C  0.97408538  0.34227254  0.74056530     1.02300
O82         O  0.99030010  0.33652753  0.76440236    -0.78200
O83         O  0.95293341  0.30861878  0.80837613    -0.78300
C84         C  0.93239485  0.30590026  0.82936872     1.02300
Cr85       Cr  0.92285683  0.37264401  0.83347197     1.93700
Cr86       Cr  0.95139873  0.39745745  0.77300075     1.93200
Cr87       Cr  0.98346234  0.34415646  0.80950999     1.39100
O88         O  0.95277811  0.37131747  0.80486474    -1.23400
O89         O  0.80047633  0.89103104  0.37072657    -0.85700
O90         O  0.84931721  0.92292122  0.34299204    -0.82700
C91         C  0.83382288  0.92868243  0.31870276     0.97800
O92         O  0.81447305  0.95099075  0.31889590    -0.82700
O93         O  0.76970429  0.99078353  0.34252349    -0.85400
C94         C  0.74489754  0.97548925  0.34671123     1.02300
O95         O  0.74310031  0.95487014  0.36791889    -0.78100
O96         O  0.76619238  0.90740529  0.40547929    -0.78300
C97         C  0.77483339  0.88759111  0.38505947     1.02300
O98         O  0.82116144  0.91219740  0.43056128    -0.85700
O99         O  0.86383302  0.95167087  0.40219552    -0.82700
C100        C  0.87226770  0.97503582  0.38607718     0.97800
O101        O  0.85956045  0.97999459  0.35993314    -0.82800
O102        O  0.81313371  0.01616687  0.38572790    -0.85400
C103        C  0.79065776  0.02074428  0.40434935     1.02300
O104        O  0.76984487  0.00030833  0.40823441    -0.78200
O105        O  0.79760894  0.95532879  0.44352348    -0.78300
C106        C  0.81558577  0.93309698  0.45053049     1.02300
Cr107      Cr  0.83207408  0.92150305  0.38619057     1.93700
Cr108      Cr  0.81369144  0.98236136  0.35355046     1.93200
Cr109      Cr  0.77157682  0.95412695  0.40474282     1.39100
O110        O  0.80534978  0.95274393  0.38118178    -1.23400
O111        O  0.05053538  0.89158175  0.63966122    -0.85700
O112        O  0.09284505  0.91976408  0.67971010    -0.82700
C113        C  0.07421299  0.94232548  0.68276405     0.97800
O114        O  0.05096983  0.93923741  0.70063315    -0.82700
O115        O  0.00340414  0.91049109  0.73230601    -0.85400
C116        C  0.98204543  0.90466227  0.71303213     1.02300
O117        O  0.98509039  0.88339459  0.69272250    -0.78100
O118        O  0.01888435  0.85224339  0.64798526    -0.78300
C119        C  0.02596805  0.87669500  0.63274030     1.02300
O120        O  0.07392486  0.83161836  0.65881973    -0.85700
O121        O  0.10802928  0.86037658  0.70642014    -0.82700
C122        C  0.11128210  0.87597114  0.73149276     0.97800
O123        O  0.09498127  0.90037238  0.73596907    -0.82800
O124        O  0.04598806  0.86983297  0.76327769    -0.85400
C125        C  0.02558051  0.84852685  0.76355447     1.02300
O126        O  0.00913415  0.84310649  0.73978638    -0.78200
O127        O  0.04647200  0.81331025  0.69734737    -0.78300
C128        C  0.06740247  0.80942485  0.67698636     1.02300
Cr129      Cr  0.07943775  0.87579317  0.67274608     1.93700
Cr130      Cr  0.04885849  0.90330032  0.73088046     1.93200
Cr131      Cr  0.01709707  0.84969224  0.69469686     1.39100
O132        O  0.04812702  0.87622645  0.69978696    -1.23400
O133        O  0.39224707  0.86056516  0.95935120    -0.85700
O134        O  0.42198305  0.82353389  0.91426666    -0.82700
C135        C  0.44307613  0.81576167  0.93299426     0.97800
O136        O  0.43744653  0.79573427  0.95384898    -0.82700
O137        O  0.40429950  0.76221507  0.99681940    -0.85400
C138        C  0.39907663  0.78023460  0.01963389     1.02300
O139        O  0.37892819  0.80190773  0.01789123    -0.78100
O140        O  0.35028573  0.85088087  0.98711711    -0.78300
C141        C  0.37482557  0.86667662  0.98263195     1.02300
O142        O  0.33407416  0.84571622  0.93056549    -0.85700
O143        O  0.36301760  0.80156819  0.89286439    -0.82700
C144        C  0.37752908  0.77635400  0.88694160     0.97800
O145        O  0.39962677  0.76758044  0.90447695    -0.82800
O146        O  0.36472327  0.73765474  0.94965867    -0.85400
C147        C  0.34312514  0.73657589  0.96982422     1.02300
O148        O  0.33810343  0.75917245  0.98811355    -0.78200
O149        O  0.31211385  0.80582382  0.95255227    -0.78300
C150        C  0.31148658  0.82710636  0.93208048     1.02300
Cr151      Cr  0.37769612  0.83100185  0.92602259     1.93700
Cr152      Cr  0.39985512  0.76814832  0.95129381     1.93200
Cr153      Cr  0.34666363  0.80435522  0.98429359     1.39100
O154        O  0.37477983  0.80082717  0.95414455    -1.23400
O155        O  0.29666387  0.60925072  0.64275340    -0.85700
O156        O  0.34317551  0.57459028  0.67247422    -0.82700
C157        C  0.32620008  0.56819997  0.69564440     0.97800
O158        O  0.30544983  0.54750250  0.69306970    -0.82700
O159        O  0.26157287  0.51004887  0.66555352    -0.85400
C160        C  0.23770128  0.52652921  0.66057703     1.02300
O161        O  0.23768424  0.54728162  0.63940285    -0.78100
O162        O  0.26493388  0.59510171  0.60506895    -0.78300
C163        C  0.27257483  0.61420715  0.62640394     1.02300
O164        O  0.32132732  0.58965474  0.58397963    -0.85700
O165        O  0.36100177  0.54775361  0.61354426    -0.82700
C166        C  0.36839861  0.52400422  0.62964845     0.97800
O167        O  0.35278887  0.51730098  0.65391617    -0.82800
O168        O  0.30649739  0.48361918  0.62434820    -0.85400
C169        C  0.28508455  0.48044106  0.60433566     1.02300
O170        O  0.26606408  0.50235346  0.59908204    -0.78200
O171        O  0.29784499  0.54791455  0.56746514    -0.78300
C172        C  0.31675762  0.56996545  0.56265534     1.02300
Cr173      Cr  0.32870361  0.57820617  0.62842145     1.93700
Cr174      Cr  0.30630128  0.51693313  0.65738504     1.93200
Cr175      Cr  0.26895934  0.54830667  0.60450015     1.39100
O176        O  0.30094872  0.54762685  0.63025795    -1.23400
O177        O  0.54624782  0.60844473  0.36410616    -0.85700
O178        O  0.58604710  0.57557165  0.32452164    -0.82700
C179        C  0.56502034  0.55552629  0.32082858     0.97800
O180        O  0.54312805  0.56139498  0.30222560    -0.82700
O181        O  0.50021921  0.59537590  0.26991054    -0.85400
C182        C  0.47894227  0.60287840  0.28891815     1.02300
O183        O  0.48339659  0.62356439  0.30961949    -0.78100
O184        O  0.51883928  0.65112096  0.35566834    -0.78300
C185        C  0.52415822  0.62670030  0.37166879     1.02300
O186        O  0.57636033  0.66508023  0.34561075    -0.85700
O187        O  0.60864476  0.63286827  0.29916568    -0.82700
C188        C  0.61231918  0.61628313  0.27484475     0.97800
O189        O  0.59266660  0.59515561  0.26818342    -0.82800
O190        O  0.54751362  0.63133689  0.24036713    -0.85400
C191        C  0.52869658  0.65417650  0.23978819     1.02300
O192        O  0.51294223  0.66161633  0.26366297    -0.78200
O193        O  0.55193973  0.68723767  0.30733674    -0.78300
C194        C  0.57327021  0.68806391  0.32752582     1.02300
Cr195      Cr  0.57738015  0.62076407  0.33161178     1.93700
Cr196      Cr  0.54610680  0.59754776  0.27245911     1.93200
Cr197      Cr  0.51885275  0.65395118  0.30883818     1.39100
O198        O  0.54716603  0.62422922  0.30392504    -1.23400
O199        O  0.61526227  0.36484905  0.55280776    -0.85700
O200        O  0.58775856  0.32475244  0.59569244    -0.82700
C201        C  0.56558185  0.31967462  0.57723890     0.97800
O202        O  0.56947051  0.30078610  0.55487086    -0.82700
O203        O  0.59948866  0.26889382  0.50808587    -0.85400
C204        C  0.60202846  0.28877478  0.48647199     1.02300
O205        O  0.62183514  0.31064836  0.48822272    -0.78100
O206        O  0.65414645  0.35660671  0.52029748    -0.78300
C207        C  0.63071825  0.37260529  0.52876980     1.02300
O208        O  0.67522301  0.34667726  0.57567561    -0.85700
O209        O  0.64804157  0.29982761  0.61125017    -0.82700
C210        C  0.63293384  0.27491255  0.61639812     0.97800
O211        O  0.60932187  0.26853141  0.59995344    -0.82800
O212        O  0.64177071  0.24151315  0.55097475    -0.85400
C213        C  0.66152219  0.24141036  0.52889688     1.02300
O214        O  0.66452180  0.26485261  0.51122586    -0.78200
O215        O  0.69413123  0.30862234  0.54743780    -0.78300
C216        C  0.69772005  0.32919240  0.56830614     1.02300
Cr217      Cr  0.63157997  0.33225947  0.58192982     1.93700
Cr218      Cr  0.60659315  0.27216970  0.55345834     1.93200
Cr219      Cr  0.65702295  0.30993246  0.51904233     1.39100
O220        O  0.63176117  0.30456215  0.55120982    -1.23400
O221        O  0.69874896  0.10579445  0.84719025    -0.85700
O222        O  0.65528732  0.06593191  0.82004920    -0.82700
C223        C  0.67442914  0.05974347  0.79860676     0.97800
O224        O  0.69591230  0.04030589  0.80368483    -0.82700
O225        O  0.74062103  0.00861076  0.83561840    -0.85400
C226        C  0.76227307  0.02823596  0.83881941     1.02300
O227        O  0.76021616  0.05022240  0.85854217    -0.78100
O228        O  0.72896543  0.09825932  0.88779347    -0.78300
C229        C  0.72217570  0.11358183  0.86333441     1.02300
O230        O  0.67322100  0.09048128  0.90707166    -0.85700
O231        O  0.63698573  0.04453929  0.88058811    -0.82700
C232        C  0.63182993  0.01878355  0.86694340     0.97800
O233        O  0.64862705  0.01058897  0.84386337    -0.82800
O234        O  0.69581751  0.98309340  0.87740372    -0.85400
C235        C  0.71697650  0.98281113  0.89787297     1.02300
O236        O  0.73441574  0.00627609  0.90178527    -0.78200
O237        O  0.69842842  0.05224792  0.92874904    -0.78300
C238        C  0.67698525  0.07247711  0.92999371     1.02300
Cr239      Cr  0.66786302  0.07496053  0.86381801     1.93700
Cr240      Cr  0.69521459  0.01297058  0.84166997     1.93200
Cr241      Cr  0.72837189  0.05149658  0.89258655     1.39100
O242        O  0.69738569  0.04613797  0.86610704    -1.23400
O243        O  0.86724116  0.70383919  0.11086998    -0.85700
O244        O  0.83807675  0.65664337  0.07787559    -0.82700
C245        C  0.81412816  0.67325718  0.07400454     0.97800
O246        O  0.81418275  0.69365863  0.05260301    -0.82700
O247        O  0.83789174  0.73973394  0.01428273    -0.85400
C248        C  0.84288694  0.76370726  0.03087577     1.02300
O249        O  0.86457181  0.76393589  0.05083368    -0.78100
O250        O  0.90253485  0.73759664  0.09544386    -0.78300
C251        C  0.88153004  0.72943079  0.11469288     1.02300
O252        O  0.92582920  0.68267071  0.08739299    -0.85700
O253        O  0.89569056  0.64135747  0.04785131    -0.82700
C254        C  0.87791205  0.63262004  0.02605101     0.97800
O255        O  0.85339004  0.64798507  0.01986745    -0.82800
O256        O  0.88005912  0.69582988  0.98570510    -0.85400
C257        C  0.89904257  0.71819397  0.98204773     1.02300
O258        O  0.90248987  0.73855164  0.00302036    -0.78200
O259        O  0.93832358  0.70699629  0.04478922    -0.78300
C260        C  0.94505391  0.68740966  0.06569079     1.02300
Cr261      Cr  0.88139567  0.67290021  0.07910052     1.93700
Cr262      Cr  0.84815197  0.69468129  0.02012031     1.93200
Cr263      Cr  0.90052207  0.73440112  0.04880977     1.39100
O264        O  0.87640456  0.70101014  0.04921202    -1.23400
C265        C  0.82364920  0.79184914  0.02497111    -0.03500
C266        C  0.83483460  0.82201425  0.03126585    -0.06100
C267        C  0.81825911  0.84835690  0.02103647    -0.21200
C268        C  0.79022608  0.84506929  0.00442476     0.24500
C269        C  0.77809091  0.81484498  0.00006059    -0.18800
C270        C  0.79474795  0.78860813  0.00999949    -0.08700
C271        C  0.77504299  0.87359839  0.99139282    -0.19000
C272        C  0.75412569  0.87316459  0.96782916    -0.23800
C273        C  0.74184223  0.90175074  0.95197439     0.26600
C274        C  0.72532623  0.89831728  0.92380947    -0.20600
C275        C  0.71577225  0.92457980  0.90665957    -0.10200
C276        C  0.72282605  0.95480180  0.91728633    -0.10800
C277        C  0.73791129  0.95827217  0.94612894    -0.03700
C278        C  0.74702258  0.93218302  0.96343006    -0.18800
H279        H  0.85701654  0.82521466  0.04276631     0.10300
H280        H  0.82796691  0.87137325  0.02514009     0.10400
H281        H  0.75598358  0.81111555  0.98870407     0.10000
H282        H  0.78524919  0.76560843  0.00534832     0.11100
H283        H  0.78358615  0.89572700  0.00014237     0.11200
H284        H  0.74721895  0.85091323  0.95788812     0.13100
H285        H  0.72061049  0.87521512  0.91453505     0.09600
H286        H  0.70410683  0.92123516  0.88452848     0.11700
H287        H  0.74311942  0.98135300  0.95519437     0.08300
H288        H  0.75842215  0.93635469  0.98545538     0.11100
C289        C  0.67188814  0.07697956  0.76896384    -0.03500
C290        C  0.64227801  0.08325763  0.75678036    -0.06100
C291        C  0.63854543  0.10514152  0.73292697    -0.21200
C292        C  0.66413712  0.12202701  0.72151505     0.24500
C293        C  0.69407327  0.11497827  0.73281337    -0.18800
C294        C  0.69793330  0.09226995  0.75619007    -0.08700
C295        C  0.65809651  0.14718368  0.69847947    -0.19000
C296        C  0.67293478  0.17498618  0.69838254    -0.23800
C297        C  0.66220199  0.20186736  0.67893789     0.26600
C298        C  0.68330965  0.22534698  0.66991880    -0.20600
C299        C  0.67364861  0.25028626  0.65085214    -0.10200
C300        C  0.64261624  0.25218716  0.64064654    -0.10800
C301        C  0.62128452  0.22954067  0.65097572    -0.03700
C302        C  0.63082325  0.20492357  0.67006127    -0.18800
H303        H  0.62185058  0.07203005  0.76656365     0.10300
H304        H  0.61529423  0.11007328  0.72445895     0.10400
H305        H  0.71428660  0.12728384  0.72400411     0.10000
H306        H  0.72093321  0.08812616  0.76567295     0.11100
H307        H  0.63849001  0.14356298  0.68299301     0.11200
H308        H  0.69282687  0.17852517  0.71356760     0.13100
H309        H  0.70748516  0.22391874  0.67692300     0.09600
H310        H  0.69065308  0.26730459  0.64310345     0.11700
H311        H  0.59713004  0.23053398  0.64382889     0.08300
H312        H  0.61337780  0.18841510  0.67780657     0.11100
C313        C  0.56620762  0.52681015  0.33989951    -0.03500
C314        C  0.53928335  0.51486726  0.35432827    -0.06100
C315        C  0.54183486  0.49290329  0.37861692    -0.21200
C316        C  0.57128337  0.48275687  0.38875483     0.24500
C317        C  0.59788013  0.49279387  0.37231258    -0.18800
C318        C  0.59536704  0.51482165  0.34847539    -0.08700
C319        C  0.57416572  0.46233690  0.41678937    -0.19000
C320        C  0.59916903  0.46413871  0.43568177    -0.23800
C321        C  0.60573403  0.44251789  0.46194681     0.26600
C322        C  0.63701338  0.43719561  0.46962987    -0.20600
C323        C  0.64496189  0.41571853  0.49274672    -0.10200
C324        C  0.62176510  0.39957694  0.50929612    -0.10800
C325        C  0.59032247  0.40609357  0.50298784    -0.03700
C326        C  0.58230350  0.42725856  0.47924369    -0.18800
H327        H  0.51654756  0.52404907  0.34832742     0.10300
H328        H  0.52095737  0.48508710  0.39053605     0.10400
H329        H  0.62084450  0.48427395  0.37829792     0.10000
H330        H  0.61644358  0.52350000  0.33753107     0.11100
H331        H  0.55558032  0.44590776  0.42184225     0.11200
H332        H  0.61707963  0.48131304  0.43059190     0.13100
H333        H  0.65548179  0.44882340  0.45683176     0.09600
H334        H  0.66937290  0.41098410  0.49705231     0.11700
H335        H  0.57205900  0.39364384  0.51523440     0.08300
H336        H  0.55794113  0.43141212  0.47435026     0.11100
C337        C  0.63924731  0.62097892  0.25356982    -0.03500
C338        C  0.64858634  0.59655300  0.23360953    -0.06100
C339        C  0.67178912  0.60124813  0.21118963    -0.21200
C340        C  0.68581749  0.63063454  0.20754957     0.24500
C341        C  0.67697447  0.65511817  0.22783838    -0.18800
C342        C  0.65397569  0.65024151  0.25080507    -0.08700
C343        C  0.71019027  0.63406429  0.18297237    -0.19000
C344        C  0.71690561  0.66106308  0.16805522    -0.23800
C345        C  0.74093294  0.66303728  0.14276515     0.26600
C346        C  0.73929749  0.68706166  0.12032340    -0.20600
C347        C  0.76220954  0.68987639  0.09691494    -0.10200
C348        C  0.78735969  0.66878088  0.09568696    -0.10800
C349        C  0.78870454  0.64461635  0.11798258    -0.03700
C350        C  0.76604139  0.64189018  0.14125296    -0.18800
H351        H  0.63771378  0.57375079  0.23513916     0.10300
H352        H  0.67837198  0.58190639  0.19613046     0.10400
H353        H  0.68787399  0.67786975  0.22615431     0.10000
H354        H  0.64706919  0.66954952  0.26574712     0.11100
H355        H  0.72151474  0.61261319  0.17538303     0.11200
H356        H  0.70348404  0.68198036  0.17343105     0.13100
H357        H  0.72035196  0.70384339  0.12105475     0.09600
H358        H  0.76071592  0.70899939  0.08039454     0.11700
H359        H  0.80792743  0.62814581  0.11810374     0.08300
H360        H  0.76897898  0.62371635  0.15856671     0.11100
C361        C  0.39437386  0.50292490  0.62023461    -0.03500
C362        C  0.40682231  0.50346081  0.58980609    -0.06100
C363        C  0.42833387  0.48053790  0.58014957    -0.21200
C364        C  0.43770351  0.45651409  0.60057423     0.24500
C365        C  0.42610004  0.45686274  0.63139870    -0.18800
C366        C  0.40463370  0.47958967  0.64096174    -0.08700
C367        C  0.46020320  0.43210012  0.58939493    -0.19000
C368        C  0.46361993  0.40393818  0.60336392    -0.23800
C369        C  0.48796407  0.38052867  0.59475413     0.26600
C370        C  0.49940331  0.36079028  0.61830676    -0.20600
C371        C  0.52363517  0.33975124  0.61213311    -0.10200
C372        C  0.53621482  0.33710115  0.58196442    -0.10800
C373        C  0.52374634  0.35552504  0.55785889    -0.03700
C374        C  0.49999845  0.37734257  0.56423214    -0.18800
H375        H  0.39919383  0.52094555  0.57317496     0.10300
H376        H  0.43716933  0.48117492  0.55641676     0.10400
H377        H  0.43356478  0.43982896  0.64846693     0.10000
H378        H  0.39569594  0.47856926  0.66464387     0.11100
H379        H  0.47457074  0.43776495  0.56925878     0.11200
H380        H  0.44914522  0.39808978  0.62332028     0.13100
H381        H  0.49041800  0.36256634  0.64193734     0.09600
H382        H  0.53316358  0.32606618  0.63114870     0.11700
H383        H  0.53344077  0.35414629  0.53449628     0.08300
H384        H  0.49126278  0.39169144  0.54536241     0.11100
C385        C  0.50347775  0.61975567  0.39846809    -0.03500
C386        C  0.49023290  0.64445959  0.41560543    -0.06100
C387        C  0.46682998  0.63875294  0.43761482    -0.21200
C388        C  0.45546344  0.60834189  0.44247993     0.24500
C389        C  0.46941217  0.58333846  0.42603289    -0.18800
C390        C  0.49339500  0.58902970  0.40435629    -0.08700
C391        C  0.42926830  0.60423203  0.46504977    -0.19000
C392        C  0.40905435  0.58003715  0.46495606    -0.23800
C393        C  0.38234532  0.57794441  0.48733880     0.26600
C394        C  0.36874014  0.60482524  0.50076397    -0.20600
C395        C  0.34579936  0.60210524  0.52383155    -0.10200
C396        C  0.33532079  0.57255476  0.53358471    -0.10800
C397        C  0.34709419  0.54573943  0.51860100    -0.03700
C398        C  0.37041011  0.54844317  0.49564997    -0.18800
H399        H  0.49752478  0.66836277  0.41144137     0.10300
H400        H  0.45680943  0.65840399  0.45016775     0.10400
H401        H  0.46187566  0.55948108  0.42969987     0.10000
H402        H  0.50304131  0.56961888  0.39116410     0.11100
H403        H  0.42607884  0.62287392  0.48199513     0.11200
H404        H  0.41230627  0.56091708  0.44856396     0.13100
H405        H  0.37602683  0.62806371  0.49395286     0.09600
H406        H  0.33692845  0.62317922  0.53484875     0.11700
H407        H  0.33969892  0.52266184  0.52597402     0.08300
H408        H  0.38009428  0.52737410  0.48535536     0.11100
C409        C  0.41713690  0.77435445  0.04829941    -0.03500
C410        C  0.40410586  0.77804136  0.07814820    -0.06100
C411        C  0.42022160  0.76718449  0.10446012    -0.21200
C412        C  0.44959233  0.75268898  0.10134460     0.24500
C413        C  0.46335311  0.75103417  0.07154659    -0.18800
C414        C  0.44718655  0.76150626  0.04539995    -0.08700
C415        C  0.46490980  0.73946293  0.12955466    -0.19000
C416        C  0.48844982  0.71834807  0.12863976    -0.23800
C417        C  0.50214973  0.70387994  0.15708058     0.26600
C418        C  0.51836466  0.67529061  0.15448340    -0.20600
C419        C  0.52886707  0.65959197  0.18122730    -0.10200
C420        C  0.52321358  0.67231089  0.21095390    -0.10800
C421        C  0.50910172  0.70194640  0.21328962    -0.03700
C422        C  0.49891896  0.71765585  0.18673628    -0.18800
H423        H  0.38097995  0.78783982  0.08097017     0.10300
H424        H  0.40927194  0.76922497  0.12722541     0.10400
H425        H  0.48642321  0.74147564  0.06804349     0.10000
H426        H  0.45801440  0.75894339  0.02261666     0.11100
H427        H  0.45483556  0.74608069  0.15187433     0.11200
H428        H  0.49673948  0.70951919  0.10635566     0.13100
H429        H  0.52181633  0.66447930  0.13182801     0.09600
H430        H  0.53992909  0.63690539  0.17875064     0.11700
H431        H  0.50515890  0.71274653  0.23587814     0.08300
H432        H  0.48820726  0.74037905  0.18979679     0.11100
C433        C  0.47341064  0.83134054  0.93011876    -0.03500
C434        C  0.48967342  0.82966139  0.90172164    -0.06100
C435        C  0.51424298  0.85014642  0.89557943    -0.21200
C436        C  0.52221331  0.87350672  0.91717508     0.24500
C437        C  0.50669602  0.87444096  0.94620440    -0.18800
C438        C  0.48261488  0.85325055  0.95269989    -0.08700
C439        C  0.54613403  0.89678712  0.90787466    -0.19000
C440        C  0.54532516  0.92718030  0.91650864    -0.23800
C441        C  0.56661184  0.95120744  0.90295837     0.26600
C442        C  0.57231618  0.97905602  0.91948440    -0.20600
C443        C  0.59251963  0.00182529  0.90733976    -0.10200
C444        C  0.60719426  0.99725953  0.87823887    -0.10800
C445        C  0.60049974  0.96996924  0.86123640    -0.03700
C446        C  0.58037000  0.94736443  0.87328501    -0.18800
H447        H  0.48248554  0.81333359  0.88378054     0.10300
H448        H  0.52595333  0.84884951  0.87313576     0.10400
H449        H  0.51274937  0.89175408  0.96360897     0.10000
H450        H  0.46995784  0.85516619  0.97455055     0.11100
H451        H  0.56355235  0.88887590  0.89120955     0.11200
H452        H  0.52805589  0.93500031  0.93342170     0.13100
H453        H  0.56163609  0.98289583  0.94214592     0.09600
H454        H  0.59734638  0.02251822  0.92112073     0.11700
H455        H  0.61122497  0.96577363  0.83866150     0.08300
H456        H  0.57554895  0.92708248  0.85900459     0.11100
C457        C  0.36857905  0.75584915  0.86048376    -0.03500
C458        C  0.33803521  0.75576774  0.84878072    -0.06100
C459        C  0.32845929  0.73230948  0.82790623    -0.21200
C460        C  0.34914762  0.70848796  0.81840845     0.24500
C461        C  0.38023895  0.70995598  0.82864022    -0.18800
C462        C  0.38967846  0.73310907  0.84958242    -0.08700
C463        C  0.33790521  0.68280260  0.79755258    -0.19000
C464        C  0.35241217  0.65479802  0.79512636    -0.23800
C465        C  0.34397862  0.63030889  0.77197797     0.26600
C466        C  0.36809388  0.61251320  0.75861144    -0.20600
C467        C  0.36190602  0.59089421  0.73497671    -0.10200
C468        C  0.33130116  0.58574286  0.72490437    -0.10800
C469        C  0.30677837  0.60201356  0.73957227    -0.03700
C470        C  0.31308178  0.62440793  0.76279090    -0.18800
H471        H  0.32118117  0.77288793  0.85689187     0.10300
H472        H  0.30454424  0.73218456  0.81995606     0.10400
H473        H  0.39751001  0.69325486  0.82074896     0.10000
H474        H  0.41348592  0.73276326  0.85785021     0.11100
H475        H  0.31725886  0.68723496  0.78364885     0.11200
H476        H  0.37290119  0.65009391  0.80908675     0.13100
H477        H  0.39203735  0.61641019  0.76546519     0.09600
H478        H  0.38119893  0.57886490  0.72377744     0.11700
H479        H  0.28303033  0.59875349  0.73180534     0.08300
H480        H  0.29393428  0.63729488  0.77319839     0.11100
C481        C  0.91795293  0.72213518  0.95350230    -0.03500
C482        C  0.90602990  0.71642499  0.92364773    -0.06100
C483        C  0.92262196  0.72640599  0.89716268    -0.21200
C484        C  0.95132273  0.74206027  0.90019565     0.24500
C485        C  0.96426952  0.74522420  0.93010636    -0.18800
C486        C  0.94764019  0.73561310  0.95637896    -0.08700
C487        C  0.96636783  0.75560391  0.87187965    -0.19000
C488        C  0.98827621  0.77834047  0.87271583    -0.23800
C489        C  0.00075074  0.79443823  0.84444163     0.26600
C490        C  0.01705421  0.82280682  0.84799052    -0.20600
C491        C  0.02658534  0.84011008  0.82180957    -0.10200
C492        C  0.01969428  0.82935600  0.79166111    -0.10800
C493        C  0.00515271  0.80014379  0.78816261    -0.03700
C494        C  0.99606848  0.78275536  0.81412132    -0.18800
H495        H  0.88324669  0.70599185  0.92087448     0.10300
H496        H  0.91237073  0.72310466  0.87432472     0.10400
H497        H  0.98691759  0.75558479  0.93361621     0.10000
H498        H  0.95766093  0.73960968  0.97922911     0.11100
H499        H  0.95695541  0.74811170  0.84968584     0.11200
H500        H  0.99589956  0.78745052  0.89503387     0.13100
H501        H  0.02154814  0.83211616  0.87107972     0.09600
H502        H  0.03810246  0.86238341  0.82514497     0.11700
H503        H  0.00034485  0.79080769  0.76514358     0.08300
H504        H  0.98514815  0.76040587  0.80998700     0.11100
C505        C  0.95318432  0.92302391  0.71579897    -0.03500
C506        C  0.92391479  0.90942554  0.71103038    -0.06100
C507        C  0.89687759  0.92572384  0.71971281    -0.21200
C508        C  0.89883205  0.95577901  0.73305072     0.24500
C509        C  0.92810613  0.97024249  0.73510636    -0.18800
C510        C  0.95495957  0.95386151  0.72693654    -0.08700
C511        C  0.87023168  0.97073830  0.74577993    -0.19000
C512        C  0.87084843  0.99308326  0.76814376    -0.23800
C513        C  0.84265309  0.00558536  0.78405914     0.26600
C514        C  0.84610197  0.02151078  0.81265182    -0.20600
C515        C  0.81996956  0.03079184  0.83004120    -0.10200
C516        C  0.79006485  0.02399550  0.81908768    -0.10800
C517        C  0.78661282  0.01002277  0.78959518    -0.03700
C518        C  0.81256181  0.00117297  0.77209990    -0.18800
H519        H  0.92204925  0.88566832  0.70239309     0.10300
H520        H  0.87452497  0.91428131  0.71734532     0.10400
H521        H  0.93062327  0.99393751  0.74357468     0.10000
H522        H  0.97733948  0.96505984  0.73015169     0.11100
H523        H  0.84824478  0.96085499  0.73841242     0.11200
H524        H  0.89301570  0.00084769  0.77731062     0.13100
H525        H  0.86906123  0.02569978  0.82214693     0.09600
H526        H  0.82313279  0.04169169  0.85265566     0.11700
H527        H  0.76366055  0.00524829  0.78032808     0.08300
H528        H  0.80868069  0.99048737  0.74957489     0.11100
C529        C  0.08580993  0.78030734  0.67464544    -0.03500
C530        C  0.09720697  0.76552765  0.70156561    -0.06100
C531        C  0.12090608  0.74294179  0.69915484    -0.21200
C532        C  0.13347723  0.73471027  0.66984544     0.24500
C533        C  0.11996675  0.74770803  0.64283962    -0.18800
C534        C  0.09673341  0.77050842  0.64529502    -0.08700
C535        C  0.16067095  0.71283316  0.66823457    -0.19000
C536        C  0.17999433  0.71115015  0.64329946    -0.23800
C537        C  0.20586879  0.68813995  0.64010473     0.26600
C538        C  0.21350445  0.67750432  0.61003326    -0.20600
C539        C  0.23626456  0.65453167  0.60567278    -0.10200
C540        C  0.25258241  0.64212171  0.63122297    -0.10800
C541        C  0.24642025  0.65406365  0.66124633    -0.03700
C542        C  0.22302246  0.67675887  0.66571378    -0.18800
H543        H  0.08933331  0.77292772  0.72449671     0.10300
H544        H  0.13038562  0.73289796  0.72031824     0.10400
H545        H  0.12751924  0.74090926  0.61969394     0.10000
H546        H  0.08803667  0.78137904  0.62418281     0.11100
H547        H  0.16498531  0.69792935  0.68829820     0.11200
H548        H  0.17598021  0.72612831  0.62328424     0.13100
H549        H  0.20096972  0.68616548  0.58987939     0.09600
H550        H  0.24060529  0.64585914  0.58225629     0.11700
H551        H  0.25860258  0.64480331  0.68133831     0.08300
H552        H  0.21828989  0.68517426  0.68911823     0.11100
C553        C  0.28672494  0.82959453  0.90806196    -0.03500
C554        C  0.29353183  0.84591429  0.88030740    -0.06100
C555        C  0.27240407  0.84677809  0.85574793    -0.21200
C556        C  0.24342950  0.83214758  0.85838412     0.24500
C557        C  0.23600800  0.81619486  0.88628046    -0.18800
C558        C  0.25772891  0.81457229  0.91083040    -0.08700
C559        C  0.22214142  0.83388177  0.83114075    -0.19000
C560        C  0.19129024  0.83841517  0.83398382    -0.23800
C561        C  0.17123350  0.84682580  0.80691647     0.26600
C562        C  0.14618344  0.86724488  0.81205049    -0.20600
C563        C  0.12746715  0.87695892  0.78730262    -0.10200
C564        C  0.13281322  0.86598732  0.75670065    -0.10800
C565        C  0.15736341  0.84477311  0.75152184    -0.03700
C566        C  0.17663650  0.83549561  0.77637496    -0.18800
H567        H  0.31577517  0.85739588  0.87707208     0.10300
H568        H  0.27869670  0.85915873  0.83455945     0.10400
H569        H  0.21387275  0.80435707  0.88875961     0.10000
H570        H  0.25197505  0.80155007  0.93176018     0.11100
H571        H  0.23279766  0.83569228  0.80814438     0.11200
H572        H  0.18114991  0.83988236  0.85725486     0.13100
H573        H  0.14137086  0.87618450  0.83527927     0.09600
H574        H  0.10836308  0.89281799  0.79232047     0.11700
H575        H  0.16173527  0.83554094  0.72834052     0.08300
H576        H  0.19541757  0.81917461  0.77174848     0.11100
C577        C  0.59562414  0.71447823  0.33022358    -0.03500
C578        C  0.59576789  0.73994113  0.30939949    -0.06100
C579        C  0.61907271  0.76300823  0.31137310    -0.21200
C580        C  0.64253559  0.76108564  0.33421335     0.24500
C581        C  0.64243505  0.73528897  0.35458293    -0.18800
C582        C  0.61925193  0.71263578  0.35281057    -0.08700
C583        C  0.66735137  0.78554634  0.33609382    -0.19000
C584        C  0.68273472  0.79150985  0.36292915    -0.23800
C585        C  0.70775761  0.81525190  0.36709934     0.26600
C586        C  0.71453103  0.82485239  0.39770291    -0.20600
C587        C  0.73719974  0.84744574  0.40342753    -0.10200
C588        C  0.75429512  0.86058173  0.37875316    -0.10800
C589        C  0.74870553  0.85013574  0.34811702    -0.03700
C590        C  0.72544209  0.82776303  0.34225966    -0.18800
H591        H  0.57823279  0.74177046  0.29137938     0.10300
H592        H  0.61878066  0.78237604  0.29506362     0.10400
H593        H  0.66069459  0.73188370  0.37157075     0.10000
H594        H  0.62040496  0.69309573  0.36887383     0.11100
H595        H  0.67208345  0.79949923  0.31544435     0.11200
H596        H  0.67555842  0.77935653  0.38399937     0.13100
H597        H  0.70166916  0.81535085  0.41734385     0.09600
H598        H  0.74106640  0.85506518  0.42724645     0.11700
H599        H  0.76144428  0.86015909  0.32866345     0.08300
H600        H  0.72143967  0.82039169  0.31843434     0.11100
C601        C  0.87377990  0.75050697  0.14110666    -0.03500
C602        C  0.85263589  0.74156483  0.16458984    -0.06100
C603        C  0.84445856  0.76256868  0.18843957    -0.21200
C604        C  0.85673127  0.79303405  0.18888204     0.24500
C605        C  0.87797458  0.80186267  0.16546874    -0.18800
C606        C  0.88638498  0.78085520  0.14191876    -0.08700
C607        C  0.84877049  0.81441360  0.21510133    -0.19000
C608        C  0.84945422  0.84589524  0.21263108    -0.23800
C609        C  0.84502716  0.86699993  0.23987472     0.26600
C610        C  0.83279819  0.89725116  0.23554962    -0.20600
C611        C  0.82903917  0.91765443  0.26100959    -0.10200
C612        C  0.83829207  0.90835304  0.29103488    -0.10800
C613        C  0.85124366  0.87836763  0.29508630    -0.03700
C614        C  0.85449781  0.85792261  0.26989484    -0.18800
H615        H  0.84240004  0.71841825  0.16450294     0.10300
H616        H  0.82832824  0.75510214  0.20646721     0.10400
H617        H  0.88868903  0.82475990  0.16559656     0.10000
H618        H  0.90264159  0.78857807  0.12412366     0.11100
H619        H  0.84192520  0.80376702  0.23711448     0.11200
H620        H  0.85306459  0.85666543  0.18993391     0.13100
H621        H  0.82581669  0.90494020  0.21250467     0.09600
H622        H  0.81910528  0.94066072  0.25722019     0.11700
H623        H  0.85855455  0.87044888  0.31795329     0.08300
H624        H  0.86499959  0.83523700  0.27394507     0.11100
C625        C  0.83194746  0.93163887  0.48071299    -0.03500
C626        C  0.83234176  0.90348172  0.49746735    -0.06100
C627        C  0.85352519  0.89897230  0.52175339    -0.21200
C628        C  0.87559542  0.92203876  0.52906360     0.24500
C629        C  0.87420918  0.95096358  0.51331506    -0.18800
C630        C  0.85233400  0.95577325  0.48945419    -0.08700
C631        C  0.90028907  0.91394763  0.55207666    -0.19000
C632        C  0.92951082  0.92565958  0.55151587    -0.23800
C633        C  0.95522178  0.91248822  0.57099961     0.26600
C634        C  0.98074323  0.93132952  0.57922898    -0.20600
C635        C  0.00485474  0.91939220  0.59793170    -0.10200
C636        C  0.00404505  0.88821297  0.60849235    -0.10800
C637        C  0.97926850  0.86904947  0.59893659    -0.03700
C638        C  0.95531571  0.88091591  0.58037237    -0.18800
H639        H  0.81712238  0.88442990  0.49083235     0.10300
H640        H  0.85387740  0.87659536  0.53364334     0.10400
H641        H  0.89038033  0.96953359  0.51880415     0.10000
H642        H  0.85278223  0.97750189  0.47641409     0.11100
H643        H  0.89479898  0.89533019  0.56841791     0.11200
H644        H  0.93520967  0.94466468  0.53570027     0.13100
H645        H  0.98160519  0.95556902  0.57187175     0.09600
H646        H  0.02344368  0.93487392  0.60510499     0.11700
H647        H  0.97796471  0.84487374  0.60643439     0.08300
H648        H  0.93698965  0.86511669  0.57334682     0.11100
C649        C  0.78737808  0.05007506  0.42210340    -0.03500
C650        C  0.79224936  0.07935077  0.40818377    -0.06100
C651        C  0.78324487  0.10672815  0.42397445    -0.21200
C652        C  0.76948201  0.10514749  0.45386530     0.24500
C653        C  0.76728594  0.07584564  0.46865070    -0.18800
C654        C  0.77571753  0.04864996  0.45273990    -0.08700
C655        C  0.75639400  0.13410647  0.46825797    -0.19000
C656        C  0.73356573  0.13361667  0.49014551    -0.23800
C657        C  0.71701263  0.16183324  0.50226190     0.26600
C658        C  0.68922594  0.15767091  0.51936736    -0.20600
C659        C  0.67156771  0.18344035  0.52937191    -0.10200
C660        C  0.68132838  0.21387401  0.52222919    -0.10800
C661        C  0.70975489  0.21810528  0.50634069    -0.03700
C662        C  0.72753866  0.19246905  0.49668446    -0.18800
H663        H  0.80125194  0.08093492  0.38456227     0.10300
H664        H  0.78572112  0.12905315  0.41224890     0.10400
H665        H  0.75848854  0.07356187  0.49223360     0.10000
H666        H  0.77237566  0.02625644  0.46414765     0.11100
H667        H  0.76395375  0.15614759  0.45834389     0.11200
H668        H  0.72460142  0.11128678  0.49807349     0.13100
H669        H  0.68068218  0.13434664  0.52429834     0.09600
H670        H  0.64976525  0.17954827  0.54156324     0.11700
H671        H  0.71812497  0.24141195  0.50100245     0.08300
H672        H  0.74923115  0.19702986  0.48468032     0.11100
C673        C  0.04751762  0.41689413  0.78562169    -0.03500
C674        C  0.07700294  0.40411027  0.79164933    -0.06100
C675        C  0.10392460  0.42033431  0.78251927    -0.21200
C676        C  0.10170086  0.44950823  0.76736867     0.24500
C677        C  0.07218889  0.46336612  0.76408422    -0.18800
C678        C  0.04546249  0.44710224  0.77282260    -0.08700
C679        C  0.13028779  0.46429738  0.75429563    -0.19000
C680        C  0.12967323  0.48453937  0.72996435    -0.23800
C681        C  0.15774577  0.49767664  0.71409053     0.26600
C682        C  0.15380914  0.51498348  0.68633633    -0.20600
C683        C  0.17959591  0.52596846  0.66938098    -0.10200
C684        C  0.20984109  0.51964904  0.67984568    -0.10800
C685        C  0.21371066  0.50363739  0.70829910    -0.03700
C686        C  0.18811323  0.49290967  0.72527606    -0.18800
H687        H  0.07918557  0.38096073  0.80171888     0.10300
H688        H  0.12644762  0.40942427  0.78597131     0.10400
H689        H  0.06945425  0.48650015  0.75421994     0.10000
H690        H  0.02297016  0.45786832  0.76873101     0.11100
H691        H  0.15226730  0.45618887  0.76360393     0.11200
H692        H  0.10743694  0.49057107  0.71964339     0.13100
H693        H  0.13068638  0.51932576  0.67726985     0.09600
H694        H  0.17591092  0.53819292  0.64754584     0.11700
H695        H  0.23678348  0.49878866  0.71726424     0.08300
H696        H  0.19261450  0.48064128  0.74682491     0.11100
C697        C  0.91286906  0.27758435  0.83262519    -0.03500
C698        C  0.90240541  0.26880905  0.86244359    -0.06100
C699        C  0.88006434  0.24543186  0.86603697    -0.21200
C700        C  0.86682754  0.23086470  0.83991988     0.24500
C701        C  0.87764874  0.23903879  0.80991123    -0.18800
C702        C  0.90078837  0.26206617  0.80633001    -0.08700
C703        C  0.84211100  0.20722076  0.84561628    -0.19000
C704        C  0.81691830  0.20300057  0.82731773    -0.23800
C705        C  0.79050386  0.18222465  0.83677667     0.26600
C706        C  0.77125132  0.16868447  0.81394948    -0.20600
C707        C  0.74750621  0.14768993  0.82248968    -0.10200
C708        C  0.74264174  0.13993117  0.85406589    -0.10800
C709        C  0.76062341  0.15493746  0.87689220    -0.03700
C710        C  0.78394401  0.17603643  0.86844454    -0.18800
H711        H  0.91109271  0.28057349  0.88306726     0.10300
H712        H  0.87226310  0.23945041  0.88938945     0.10400
H713        H  0.86823891  0.22778822  0.78935571     0.10000
H714        H  0.90812634  0.26879807  0.78304451     0.11100
H715        H  0.84382341  0.19442075  0.86742350     0.11200
H716        H  0.81534109  0.21531268  0.80518542     0.13100
H717        H  0.77527982  0.17351839  0.78942382     0.09600
H718        H  0.73403948  0.13640261  0.80437879     0.11700
H719        H  0.75708680  0.14982026  0.90143763     0.08300
H720        H  0.79685329  0.18725173  0.88695070     0.11100
C721        C  0.88520199  0.60466309  0.00714696    -0.03500
C722        C  0.86082007  0.58622107  0.99565724    -0.06100
C723        C  0.86677648  0.56238115  0.97415882    -0.21200
C724        C  0.89705871  0.55710807  0.96290256     0.24500
C725        C  0.92175918  0.57484737  0.97513041    -0.18800
C726        C  0.91586508  0.59829697  0.99737900    -0.08700
C727        C  0.90144009  0.53312049  0.93821286    -0.19000
C728        C  0.92256668  0.53539474  0.91490353    -0.23800
C729        C  0.92343647  0.51294817  0.88824435     0.26600
C730        C  0.95148351  0.50765974  0.87196955    -0.20600
C731        C  0.95319209  0.48491569  0.84832018    -0.10200
C732        C  0.92677749  0.46723734  0.84055838    -0.10800
C733        C  0.89830740  0.47416085  0.85529632    -0.03700
C734        C  0.89656622  0.49687422  0.87862975    -0.18800
H735        H  0.83700092  0.59069448  0.00286229     0.10300
H736        H  0.84742874  0.54881474  0.96531442     0.10400
H737        H  0.94546999  0.57078660  0.96742526     0.10000
H738        H  0.93499900  0.61239099  0.00581591     0.11100
H739        H  0.88487418  0.51398546  0.93816269     0.11200
H740        H  0.93947753  0.55424654  0.91511963     0.13100
H741        H  0.97237363  0.52020452  0.87844744     0.09600
H742        H  0.97548101  0.47992517  0.83743644     0.11700
H743        H  0.87746144  0.46119781  0.84949686     0.08300
H744        H  0.87410980  0.50143357  0.88925543     0.11100
C745        C  0.86046081  0.36519365  0.75676388    -0.03500
C746        C  0.84782390  0.33487624  0.75616365    -0.06100
C747        C  0.82663207  0.32634257  0.73278437    -0.21200
C748        C  0.81776584  0.34787596  0.70959693     0.24500
C749        C  0.82878838  0.37881842  0.71171665    -0.18800
C750        C  0.85005081  0.38722738  0.73480139    -0.08700
C751        C  0.79696740  0.33757971  0.68368993    -0.19000
C752        C  0.79577949  0.35236891  0.65584944    -0.23800
C753        C  0.77325232  0.34456814  0.63080324     0.26600
C754        C  0.76153966  0.36911691  0.61252018    -0.20600
C755        C  0.73837776  0.36359677  0.59043340    -0.10200
C756        C  0.72716872  0.33321757  0.58536191    -0.10800
C757        C  0.74027981  0.30818369  0.60207840    -0.03700
C758        C  0.76301957  0.31383617  0.62489344    -0.18800
H759        H  0.85542618  0.31738027  0.77279605     0.10300
H760        H  0.81800684  0.30254117  0.73215086     0.10400
H761        H  0.82131773  0.39670061  0.69552400     0.10000
H762        H  0.85892822  0.41094438  0.73501077     0.11100
H763        H  0.78232165  0.31726967  0.68769912     0.11200
H764        H  0.81052575  0.37250972  0.65162449     0.13100
H765        H  0.76922082  0.39293577  0.61644298     0.09600
H766        H  0.72824973  0.38328725  0.57814214     0.11700
H767        H  0.73153063  0.28463705  0.59892376     0.08300
H768        H  0.77216289  0.29432731  0.63815236     0.11100
C769        C  0.17168000  0.42838404  0.02430506    -0.03500
C770        C  0.16937817  0.39804691  0.01198059    -0.06100
C771        C  0.14844087  0.39151729  0.98798253    -0.21200
C772        C  0.12854730  0.41489726  0.97649053     0.24500
C773        C  0.13182468  0.44570857  0.98775209    -0.18800
C774        C  0.15349360  0.45243060  0.01132484    -0.08700
C775        C  0.10430353  0.40564771  0.95354458    -0.19000
C776        C  0.07557877  0.41858888  0.95237085    -0.23800
C777        C  0.04984712  0.40591300  0.93261507     0.26600
C778        C  0.02412913  0.42507177  0.92548310    -0.20600
C779        C  0.99975886  0.41388706  0.90676547    -0.10200
C780        C  0.00049358  0.38315160  0.89497758    -0.10800
C781        C  0.02561258  0.36367905  0.90313690    -0.03700
C782        C  0.04981999  0.37477207  0.92178781    -0.18800
H783        H  0.18286576  0.37906215  0.02190929     0.10300
H784        H  0.14657548  0.36767258  0.97955590     0.10400
H785        H  0.11732154  0.46441152  0.97885821     0.10000
H786        H  0.15454361  0.47590619  0.02084591     0.11100
H787        H  0.10979180  0.38565821  0.93889637     0.11200
H788        H  0.07032926  0.43871942  0.96699102     0.13100
H789        H  0.02320799  0.44898398  0.93387183     0.09600
H790        H  0.98089605  0.42960694  0.90069669     0.11700
H791        H  0.02690812  0.33983057  0.89460961     0.08300
H792        H  0.06825123  0.35860588  0.92773635     0.11100
C793        C  0.10202753  0.49730349  0.10919609    -0.03500
C794        C  0.08393124  0.51173137  0.13247744    -0.06100
C795        C  0.06147372  0.53389761  0.12467347    -0.21200
C796        C  0.05704619  0.54284048  0.09350551     0.24500
C797        C  0.07445432  0.52782420  0.06987993    -0.18800
C798        C  0.09665696  0.50493352  0.07771324    -0.08700
C799        C  0.03433748  0.56828665  0.08746260    -0.19000
C800        C  0.03672539  0.58948824  0.06426300    -0.23800
C801        C  0.01643516  0.61778846  0.06400116     0.26600
C802        C  0.00553511  0.63032875  0.03572561    -0.20600
C803        C  0.98404231  0.65520493  0.03588495    -0.10200
C804        C  0.97337677  0.66783427  0.06435707    -0.10800
C805        C  0.98603799  0.65671264  0.09236903    -0.03700
C806        C  0.00753598  0.63225545  0.09220503    -0.18800
H807        H  0.08772027  0.50641754  0.15691803     0.10300
H808        H  0.04829622  0.54503191  0.14327939     0.10400
H809        H  0.07114588  0.53386776  0.04556865     0.10000
H810        H  0.11062814  0.49436164  0.05939086     0.11100
H811        H  0.01622194  0.57144055  0.10499968     0.11200
H812        H  0.05402441  0.58664679  0.04590632     0.13100
H813        H  0.01241958  0.61988735  0.01367884     0.09600
H814        H  0.97421861  0.66308981  0.01397882     0.11700
H815        H  0.97827351  0.66612089  0.11460042     0.08300
H816        H  0.01659992  0.62419020  0.11435362     0.11100
C817        C  0.44871197  0.58691237  0.28528112    -0.03500
C818        C  0.42030083  0.60290270  0.28849275    -0.06100
C819        C  0.39254631  0.58876826  0.27856750    -0.21200
C820        C  0.39291459  0.55860385  0.26527460     0.24500
C821        C  0.42105641  0.54180132  0.26464423    -0.18800
C822        C  0.44861216  0.55589506  0.27430698    -0.08700
C823        C  0.36401516  0.54562024  0.25131612    -0.19000
C824        C  0.36459539  0.52576055  0.22664732    -0.23800
C825        C  0.33660758  0.51359460  0.21004857     0.26600
C826        C  0.34092880  0.49234214  0.18519179    -0.20600
C827        C  0.31554165  0.48127716  0.16791838    -0.10200
C828        C  0.28523623  0.49141262  0.17506351    -0.10800
C829        C  0.28087687  0.51215342  0.20029631    -0.03700
C830        C  0.30610311  0.52309827  0.21754749    -0.18800
H831        H  0.41979936  0.62682795  0.29686868     0.10300
H832        H  0.37101609  0.60198559  0.27982808     0.10400
H833        H  0.42205073  0.51798467  0.25606483     0.10000
H834        H  0.47018412  0.54282862  0.27219652     0.11100
H835        H  0.34216715  0.55437032  0.26054300     0.11200
H836        H  0.38699892  0.51871513  0.21709683     0.13100
H837        H  0.36413059  0.48455481  0.17881532     0.09600
H838        H  0.31970734  0.46543147  0.14857635     0.11700
H839        H  0.25780838  0.52040362  0.20657279     0.08300
H840        H  0.30124770  0.53933579  0.23627326     0.11100
C841        C  0.32325493  0.70881454  0.97363867    -0.03500
C842        C  0.33538391  0.67842113  0.97129682    -0.06100
C843        C  0.31732172  0.65280114  0.98072688    -0.21200
C844        C  0.28697411  0.65726021  0.99252705     0.24500
C845        C  0.27424269  0.68757386  0.99266250    -0.18800
C846        C  0.29231162  0.71304954  0.98360420    -0.08700
C847        C  0.26972406  0.63004536  0.00538256    -0.19000
C848        C  0.24688734  0.63272986  0.02705964    -0.23800
C849        C  0.23279570  0.60527690  0.04291799     0.26600
C850        C  0.22080351  0.60868495  0.07339624    -0.20600
C851        C  0.21121010  0.58243487  0.09051374    -0.10200
C852        C  0.21358716  0.55253599  0.07723945    -0.10800
C853        C  0.22323570  0.54944634  0.04601027    -0.03700
C854        C  0.23243282  0.57555373  0.02887305    -0.18800
H855        H  0.35923912  0.67465462  0.96384046     0.10300
H856        H  0.32752346  0.62959291  0.98002139     0.10400
H857        H  0.25054841  0.69189730  0.00020253     0.10000
H858        H  0.28231251  0.73631945  0.98515432     0.11100
H859        H  0.27825573  0.60700142  0.99889702     0.11200
H860        H  0.24045193  0.65565665  0.03591803     0.13100
H861        H  0.22039686  0.63145648  0.08454751     0.09600
H862        H  0.20392916  0.58525362  0.11461330     0.11700
H863        H  0.22475342  0.52653472  0.03520629     0.08300
H864        H  0.24002824  0.57216441  0.00497765     0.11100
C865        C  0.17809276  0.28862776  0.47857488    -0.03500
C866        C  0.16658206  0.31910848  0.47453891    -0.06100
C867        C  0.18299712  0.34481766  0.48633180    -0.21200
C868        C  0.21124807  0.34071017  0.50240331     0.24500
C869        C  0.22361115  0.31029772  0.50489962    -0.18800
C870        C  0.20712453  0.28459665  0.49327070    -0.08700
C871        C  0.22667148  0.36875565  0.51621606    -0.19000
C872        C  0.24817324  0.36782967  0.53926346    -0.23800
C873        C  0.26103042  0.39654999  0.55447357     0.26600
C874        C  0.27411834  0.39448608  0.58456042    -0.20600
C875        C  0.28394745  0.42150262  0.60048766    -0.10200
C876        C  0.28068670  0.45105000  0.58656058    -0.10800
C877        C  0.26930566  0.45287385  0.55588721    -0.03700
C878        C  0.25995284  0.42603891  0.53990307    -0.18800
H879        H  0.14428734  0.32299381  0.46344556     0.10300
H880        H  0.17306124  0.36799739  0.48369544     0.10400
H881        H  0.24580146  0.30609805  0.51599321     0.10000
H882        H  0.21685692  0.26138956  0.49636478     0.11100
H883        H  0.21796468  0.39125472  0.50841326     0.11200
H884        H  0.25501686  0.34544263  0.54903599     0.13100
H885        H  0.27569293  0.37204807  0.59622853     0.09600
H886        H  0.29252039  0.41947269  0.62415802     0.11700
H887        H  0.26699937  0.47536199  0.54441171     0.08300
H888        H  0.25158432  0.42876168  0.51628437     0.11100
C889        C  0.08416248  0.21960960  0.54691502    -0.03500
C890        C  0.09784089  0.21479083  0.57619533    -0.06100
C891        C  0.08260918  0.22532059  0.60337826    -0.21200
C892        C  0.05357322  0.24069909  0.60161762     0.24500
C893        C  0.03894267  0.24296581  0.57241859    -0.18800
C894        C  0.05416146  0.23276736  0.54547385    -0.08700
C895        C  0.03943306  0.25444750  0.63040972    -0.19000
C896        C  0.01773888  0.27752362  0.62997561    -0.23800
C897        C  0.00436735  0.29260286  0.65847542     0.26600
C898        C  0.98853768  0.32138936  0.65558102    -0.20600
C899        C  0.97705019  0.33711326  0.68203356    -0.10200
C900        C  0.98134612  0.32432530  0.71187324    -0.10800
C901        C  0.99580555  0.29488794  0.71459063    -0.03700
C902        C  0.00695228  0.27909220  0.68828528    -0.18800
H903        H  0.12091502  0.20465850  0.57790082     0.10300
H904        H  0.09412169  0.22263806  0.62568526     0.10400
H905        H  0.01594783  0.25300815  0.57001263     0.10000
H906        H  0.04279056  0.23612907  0.52316329     0.11100
H907        H  0.04883026  0.24651259  0.65248803     0.11200
H908        H  0.01049425  0.28726918  0.60777934     0.13100
H909        H  0.98578584  0.33216468  0.63285568     0.09600
H910        H  0.96606722  0.35979180  0.67927919     0.11700
H911        H  0.99899354  0.28420521  0.73730976     0.08300
H912        H  0.01765968  0.25644414  0.69166953     0.11100
C913        C  0.89543541  0.99788933  0.39771709    -0.03500
C914        C  0.91239174  0.99274564  0.42527199    -0.06100
C915        C  0.93268435  0.01581757  0.43658187    -0.21200
C916        C  0.93550348  0.04472257  0.42115652     0.24500
C917        C  0.91835599  0.04989933  0.39383005    -0.18800
C918        C  0.89875384  0.02673576  0.38217577    -0.08700
C919        C  0.95877325  0.06802548  0.43160980    -0.19000
C920        C  0.95406572  0.09918651  0.42939586    -0.23800
C921        C  0.98005074  0.12186403  0.43181620     0.26600
C922        C  0.97565666  0.15150185  0.44559375    -0.20600
C923        C  0.99999522  0.17353199  0.44589251    -0.10200
C924        C  0.02846037  0.16656239  0.43114470    -0.10800
C925        C  0.03240070  0.13705026  0.41703502    -0.03700
C926        C  0.00871710  0.11492821  0.41764555    -0.18800
H927        H  0.91002889  0.97096030  0.43798265     0.10300
H928        H  0.94605648  0.01120218  0.45748417     0.10400
H929        H  0.92072217  0.07157770  0.38094183     0.10000
H930        H  0.88582443  0.03169092  0.36107163     0.11100
H931        H  0.98105460  0.05925233  0.43983878     0.11200
H932        H  0.93104355  0.10817665  0.42389101     0.13100
H933        H  0.95349457  0.15748004  0.45622670     0.09600
H934        H  0.99640440  0.19605648  0.45697420     0.11700
H935        H  0.05412268  0.13081300  0.40563700     0.08300
H936        H  0.01255043  0.09267490  0.40609005     0.11100
C937        C  0.12935373  0.25355705  0.35973569    -0.03500
C938        C  0.14634738  0.24417849  0.33321433    -0.06100
C939        C  0.15397028  0.26601814  0.30990913    -0.21200
C940        C  0.14548896  0.29771232  0.31306706     0.24500
C941        C  0.12882878  0.30707865  0.33978292    -0.18800
C942        C  0.12082434  0.28528874  0.36272872    -0.08700
C943        C  0.15209683  0.31998951  0.28718689    -0.19000
C944        C  0.15570305  0.35112550  0.29133932    -0.23800
C945        C  0.15910368  0.37317877  0.26468518     0.26600
C946        C  0.17744903  0.40025986  0.26762013    -0.20600
C947        C  0.18076763  0.42113597  0.24245504    -0.10200
C948        C  0.16509306  0.41560108  0.21423672    -0.10800
C949        C  0.14598253  0.38896763  0.21186932    -0.03700
C950        C  0.14307641  0.36805116  0.23666927    -0.18800
H951        H  0.15333629  0.21997327  0.33029109     0.10300
H952        H  0.16654338  0.25815999  0.28934599     0.10400
H953        H  0.12114523  0.33106193  0.34266194     0.10000
H954        H  0.10792503  0.29341939  0.38297884     0.11100
H955        H  0.15428847  0.31026447  0.26381577     0.11200
H956        H  0.15675244  0.36071945  0.31480912     0.13100
H957        H  0.18968273  0.40492085  0.28919765     0.09600
H958        H  0.19567704  0.44137892  0.24498420     0.11700
H959        H  0.13348893  0.38389210  0.19053962     0.08300
H960        H  0.12793410  0.34801270  0.23395866     0.11100
C961        C  0.07988639  0.97089179  0.66408257    -0.03500
C962        C  0.11046003  0.97775809  0.65454736    -0.06100
C963        C  0.11622571  0.00084124  0.63225952    -0.21200
C964        C  0.09156186  0.01715092  0.61833921     0.24500
C965        C  0.06093299  0.01128778  0.62864749    -0.18800
C966        C  0.05516192  0.98844448  0.65158311    -0.08700
C967        C  0.09916595  0.03990464  0.59322552    -0.19000
C968        C  0.08121606  0.04492154  0.56786368    -0.23800
C969        C  0.09124431  0.06503570  0.54107598     0.26600
C970        C  0.06883146  0.07742640  0.52054504    -0.20600
C971        C  0.07760282  0.09772376  0.49620224    -0.04200
C972        C  0.10903219  0.10584289  0.49193434    -0.10800
C973        C  0.13150812  0.09187702  0.51124657    -0.03700
C974        C  0.12283645  0.07164567  0.53527830    -0.18800
H975        H  0.12996168  0.96452744  0.66367926     0.10300
H976        H  0.14002887  0.00509775  0.62493352     0.10400
H977        H  0.04150261  0.02406065  0.61882561     0.10000
H978        H  0.03135783  0.98336476  0.65828837     0.11100
H979        H  0.12164717  0.05123400  0.59499040     0.11200
H980        H  0.05860488  0.03369420  0.56643521     0.13100
H981        H  0.04438438  0.07222107  0.52399076     0.09600
H982        H  0.05972878  0.10819453  0.48176897     0.11700
H983        H  0.15598967  0.09726037  0.50832149     0.08300
H984        H  0.14116212  0.06141283  0.54918937     0.11100
C985        C  0.44366429  0.02413381  0.17001051    -0.03500
C986        C  0.46806314  0.01465247  0.15021473    -0.06100
C987        C  0.46370983  0.99057182  0.12856273    -0.21200
C988        C  0.43461303  0.97604984  0.12570309     0.24500
C989        C  0.41075188  0.98408223  0.14702014    -0.18800
C990        C  0.41527461  0.00801225  0.16899294    -0.08700
C991        C  0.42967823  0.95389316  0.09932146    -0.19000
C992        C  0.40212694  0.95128428  0.08459484    -0.23800
C993        C  0.39644005  0.93083983  0.05696606     0.26600
C994        C  0.36556606  0.92283778  0.05017462    -0.20600
C995        C  0.35866720  0.90323809  0.02508024    -0.10200
C996        C  0.38243679  0.89139282  0.00568430    -0.10800
C997        C  0.41332760  0.90035547  0.01151920    -0.03700
C998        C  0.42033579  0.91984256  0.03699977    -0.18800
H999        H  0.48982397  0.02745443  0.14997656     0.10300
H1000       H  0.48249081  0.98473464  0.11259254     0.10400
H1001       H  0.38827924  0.97271640  0.14605191     0.10000
H1002       H  0.39587598  0.01556272  0.18343250     0.11100
H1003       H  0.44979622  0.94107015  0.09073192     0.11200
H1004       H  0.38239743  0.96473418  0.09324592     0.13100
H1005       H  0.34666067  0.93119962  0.06483561     0.09600
H1006       H  0.33460206  0.89677392  0.02126224     0.11700
H1007       H  0.43211829  0.89145132  0.99709588     0.08300
H1008       H  0.44437417  0.92618600  0.04083214     0.11100
C1009       C  0.36868428  0.11069726  0.25529689    -0.03500
C1010       C  0.33898348  0.11358845  0.24194650    -0.06100
C1011       C  0.31260920  0.11776657  0.26111857    -0.21200
C1012       C  0.31552438  0.11938263  0.29384945     0.24500
C1013       C  0.34506749  0.11492400  0.30706045    -0.18800
C1014       C  0.37119569  0.11086588  0.28808958    -0.08700
C1015       C  0.28759041  0.12548374  0.31377942    -0.19000
C1016       C  0.28946718  0.13899456  0.34233301    -0.23800
C1017       C  0.26239430  0.14565538  0.36326046     0.26600
C1018       C  0.26648561  0.16593559  0.38888613    -0.20600
C1019       C  0.24166479  0.17309363  0.40910230    -0.10200
C1020       C  0.21226434  0.15980601  0.40425709    -0.10800
C1021       C  0.20841130  0.13890210  0.37905916    -0.03700
C1022       C  0.23307985  0.13185988  0.35888683    -0.18800
H1023       H  0.33625503  0.11346687  0.21680833     0.10300
H1024       H  0.28999930  0.12058284  0.25033964     0.10400
H1025       H  0.34823934  0.11445861  0.33211046     0.10000
H1026       H  0.39360053  0.10816295  0.29931545     0.11100
H1027       H  0.26505550  0.12007144  0.30384868     0.11200
H1028       H  0.31199122  0.14684290  0.35059002     0.13100
H1029       H  0.28894068  0.17660138  0.39308931     0.09600
H1030       H  0.24541559  0.18914857  0.42830329     0.11700
H1031       H  0.18608519  0.12806523  0.37461975     0.08300
H1032       H  0.22895073  0.11540015  0.34018188     0.11100
C1033       C  0.40473856  0.21442455  0.17348010    -0.03500
C1034       C  0.41574433  0.24185843  0.15930709    -0.06100
C1035       C  0.39548688  0.26721733  0.15435179    -0.21200
C1036       C  0.36395571  0.26573379  0.16357806     0.24500
C1037       C  0.35343057  0.23852033  0.17875004    -0.18800
C1038       C  0.37350784  0.21332924  0.18351689    -0.08700
C1039       C  0.34291171  0.29259792  0.15610619    -0.19000
C1040       C  0.31178030  0.29292446  0.16121603    -0.23800
C1041       C  0.29086954  0.31891429  0.15132765     0.26600
C1042       C  0.26149979  0.32212949  0.16568168    -0.20600
C1043       C  0.24083212  0.34573897  0.15635594    -0.10200
C1044       C  0.24902601  0.36643141  0.13219349    -0.10800
C1045       C  0.27822359  0.36290168  0.11757666    -0.03700
C1046       C  0.29882896  0.33941271  0.12689716    -0.18800
H1047       H  0.43966028  0.24339696  0.15134093     0.10300
H1048       H  0.40437065  0.28788394  0.14272205     0.10400
H1049       H  0.32977101  0.23600363  0.18689507     0.10000
H1050       H  0.36432019  0.19267294  0.19494936     0.11100
H1051       H  0.35376997  0.31284387  0.14540829     0.11200
H1052       H  0.30057228  0.27361662  0.17305501     0.13100
H1053       H  0.25460286  0.30643510  0.18432549     0.09600
H1054       H  0.21858152  0.34791306  0.16819357     0.11700
H1055       H  0.28529554  0.37839578  0.09884283     0.08300
H1056       H  0.32063813  0.33714111  0.11438467     0.11100
C1057       C  0.50003525  0.12748744  0.10342810    -0.03500
C1058       C  0.48804640  0.10667701  0.08112143    -0.06100
C1059       C  0.50705378  0.09587583  0.05653915    -0.21200
C1060       C  0.53834398  0.10535820  0.05421636     0.24500
C1061       C  0.54963644  0.12751604  0.07552269    -0.18800
C1062       C  0.53073700  0.13841535  0.09975091    -0.08700
C1063       C  0.55857716  0.09310873  0.02872592    -0.19000
C1064       C  0.58968137  0.08943143  0.03195317    -0.23800
C1065       C  0.61101451  0.08209582  0.00544946     0.26600
C1066       C  0.64053729  0.06886359  0.01118599    -0.20600
C1067       C  0.66217826  0.06479859  0.98676474    -0.10200
C1068       C  0.65482976  0.07479893  0.95645095    -0.10800
C1069       C  0.62511487  0.08740664  0.95076103    -0.03700
C1070       C  0.60350556  0.09096769  0.97483310    -0.18800
H1071       H  0.46461859  0.09763860  0.08352762     0.10300
H1072       H  0.49766474  0.07926348  0.03995655     0.10400
H1073       H  0.57315572  0.13640370  0.07361368     0.10000
H1074       H  0.54059143  0.15475059  0.11634582     0.11100
H1075       H  0.54743693  0.08683194  0.00689332     0.11200
H1076       H  0.60013183  0.09263737  0.05479934     0.13100
H1077       H  0.64697598  0.06205049  0.03466207     0.09600
H1078       H  0.68481321  0.05476700  0.99170521     0.11700
H1079       H  0.61854193  0.09486052  0.92751306     0.08300
H1080       H  0.58143665  0.10193400  0.96947246     0.11100
C1081       C  0.49039762  0.18366543  0.28632054    -0.03500
C1082       C  0.49349619  0.21610291  0.28120022    -0.06100
C1083       C  0.50706845  0.23538191  0.30363974    -0.21200
C1084       C  0.51723035  0.22295223  0.33205178     0.24500
C1085       C  0.51344867  0.19065541  0.33769699    -0.18800
C1086       C  0.50026059  0.17117072  0.31495953    -0.08700
C1087       C  0.53303013  0.24392096  0.35466246    -0.19000
C1088       C  0.53031166  0.23991548  0.38564403    -0.23800
C1089       C  0.54659921  0.25906192  0.40950976     0.26600
C1090       C  0.53522397  0.25775467  0.44015275    -0.20600
C1091       C  0.55226559  0.27033085  0.46466169    -0.10200
C1092       C  0.58140031  0.28430197  0.45929030    -0.10800
C1093       C  0.59181170  0.28814216  0.42840024    -0.03700
C1094       C  0.57452119  0.27549697  0.40355801    -0.18800
H1095       H  0.48641089  0.22656730  0.25930786     0.10300
H1096       H  0.50983420  0.26009565  0.29869614     0.10400
H1097       H  0.52171762  0.18021027  0.35915696     0.10000
H1098       H  0.49854671  0.14628784  0.31945051     0.11100
H1099       H  0.54594794  0.26373699  0.34552398     0.11200
H1100       H  0.51489486  0.22166038  0.39420574     0.13100
H1101       H  0.51373099  0.24555764  0.44540997     0.09600
H1102       H  0.54348624  0.26737030  0.48825364     0.11700
H1103       H  0.61426875  0.29865511  0.42369533     0.08300
H1104       H  0.58414414  0.27680174  0.38020423     0.11100
C1105       C  0.55784145  0.09233509  0.22451311    -0.03500
C1106       C  0.56258409  0.05978658  0.22262674    -0.06100
C1107       C  0.58969640  0.04614600  0.23423097    -0.21200
C1108       C  0.61273316  0.06474596  0.24808745     0.24500
C1109       C  0.60912025  0.09746660  0.24792032    -0.18800
C1110       C  0.58180106  0.11119790  0.23635966    -0.08700
C1111       C  0.64044121  0.05048229  0.26311227    -0.19000
C1112       C  0.63947253  0.02232745  0.27743131    -0.23800
C1113       C  0.66667824  0.00836518  0.29361806     0.26600
C1114       C  0.66189203  0.98811739  0.31908732    -0.20600
C1115       C  0.68724399  0.97602978  0.33580461    -0.10200
C1116       C  0.71779987  0.98385617  0.32707867    -0.10800
C1117       C  0.72246506  0.00262595  0.30043777    -0.03700
C1118       C  0.69726235  0.01471267  0.28390865    -0.18800
H1119       H  0.54477831  0.04463215  0.21312582     0.10300
H1120       H  0.59233461  0.02098320  0.23275444     0.10400
H1121       H  0.62685373  0.11231713  0.25800735     0.10000
H1122       H  0.57881053  0.13631949  0.23810705     0.11100
H1123       H  0.66145448  0.06451241  0.26431878     0.11200
H1124       H  0.61748868  0.00991550  0.27912097     0.13100
H1125       H  0.63847288  0.98248257  0.32668461     0.09600
H1126       H  0.68292276  0.96159975  0.35615088     0.11700
H1127       H  0.74574170  0.00863879  0.29269160     0.08300
H1128       H  0.70183911  0.02912662  0.26362351     0.11100
loop_ 
_geom_bond_atom_site_label_1 
_geom_bond_atom_site_label_2 
_geom_bond_distance 
_geom_bond_site_symmetry_2 
_ccdc_geom_bond_type 
O1          Cr19   2.038       .  S
O1            C9   1.274       .  A
O2          Cr19   1.945       .  S
O2            C3   1.249       .  A
C3            O4   1.269       .  A
C3          C985   1.468       .  S
O4          Cr20   2.041       .  S
O5          Cr20   1.955       .  S
O5            C6   1.257       .  A
C6            O7   1.274       .  A
C6         C1105   1.480       .  S
O7          Cr21   2.041       .  S
O8          Cr21   1.940       .  S
O8            C9   1.254       .  A
C9         C1057   1.481       .  S
O10         Cr19   1.946       .  S
O10          C18   1.252       .  A
O11         Cr19   2.043       .  S
O11          C12   1.276       .  A
C12          O13   1.257       .  A
C12        C1009   1.486       .  S
O13         Cr20   1.946       .  S
O14         Cr20   2.043       .  S
O14          C15   1.273       .  A
C15          O16   1.255       .  A
C15        C1081   1.483       .  S
O16         Cr21   1.953       .  S
O17         Cr21   2.036       .  S
O17          C18   1.270       .  A
C18        C1033   1.482       .  S
Cr19         O22   1.762       .  S
Cr20         O22   1.765       .  S
Cr21         O22   1.767       .  S
O23         Cr41   2.002       .  S
O23          C31   1.271       .  A
O24         Cr41   1.979       .  S
O24          C25   1.256       .  A
C25          O26   1.265       .  A
C25        C1020   1.484       .  S
O26         Cr42   2.013       .  S
O27         Cr42   1.986       .  S
O27          C28   1.264       .  A
C28          O29   1.268       .  A
C28         C865   1.485       .  S
O29         Cr43   1.999       .  S
O30         Cr43   2.001       .  S
O30          C31   1.270       .  A
C31         C937   1.485       .  S
O32         Cr41   1.972       .  S
O32          C40   1.251       .  A
O33         Cr41   2.008       .  S
O33          C34   1.269       .  A
C34          O35   1.267       .  A
C34         C972   1.483       .  S
O35         Cr42   1.997       .  S
O36         Cr42   2.010       .  S
O36          C37   1.267       .  A
C37          O38   1.258       .  A
C37         C889   1.476       .  S
O38         Cr43   1.965       .  S
O39         Cr43   2.021       .  S
O39          C40   1.260       .  A
C40         C924   1.480       .  S
Cr41         O44   1.773       .  S
Cr42         O44   1.769       .  S
Cr43         O44   1.772       .  S
O45         Cr63   1.986       .  S
O45          C53   1.267       .  A
O46         Cr63   1.987       .  S
O46          C47   1.259       .  A
C47          O48   1.264       .  A
C47         C948   1.484       .  S
O48         Cr64   2.008       .  S
O49         Cr64   1.981       .  S
O49          C50   1.262       .  A
C50          O51   1.267       .  A
C50         C828   1.484       .  S
O51         Cr65   2.000       .  S
O52         Cr65   2.007       .  S
O52          C53   1.271       .  A
C53        C1044   1.482       .  S
O54         Cr63   1.987       .  S
O54          C62   1.254       .  A
O55         Cr63   1.998       .  S
O55          C56   1.266       .  A
C56          O57   1.267       .  A
C56         C793   1.475       .  S
O57         Cr64   2.000       .  S
O58         Cr64   1.996       .  S
O58          C59   1.265       .  A
C59          O60   1.261       .  A
C59         C852   1.469       .  S
O60         Cr65   1.975       .  S
O61         Cr65   2.010       .  S
O61          C62   1.260       .  A
C62         C769   1.475       .  S
Cr63         O66   1.769       .  S
Cr64         O66   1.768       .  S
Cr65         O66   1.764       .  S
O67         Cr85   2.000       .  S
O67          C75   1.267       .  A
O68         Cr85   1.987       .  S
O68          C69   1.256       .  A
C69          O70   1.259       .  A
C69         C732   1.478       .  S
O70         Cr86   2.004       .  S
O71         Cr86   1.980       .  S
O71          C72   1.263   1_655  A
C72          O73   1.266       .  A
C72         C673   1.476       .  S
O73         Cr87   1.998   1_455  S
O74         Cr87   2.004       .  S
O74          C75   1.268       .  A
C75         C780   1.487   1_655  S
O76         Cr85   1.994       .  S
O76          C84   1.259       .  A
O77         Cr85   1.992       .  S
O77          C78   1.268       .  A
C78          O79   1.271       .  A
C78         C745   1.482       .  S
O79         Cr86   2.010       .  S
O80         Cr86   1.999       .  S
O80          C81   1.266       .  A
C81          O82   1.262       .  A
C81         C900   1.479       .  S
O82         Cr87   1.978       .  S
O83         Cr87   2.009       .  S
O83          C84   1.262       .  A
C84         C697   1.480       .  S
Cr85         O88   1.772       .  S
Cr86         O88   1.764       .  S
Cr87         O88   1.765       .  S
O89        Cr107   1.997       .  S
O89          C97   1.267       .  A
O90        Cr107   1.990       .  S
O90          C91   1.261       .  A
C91          O92   1.263       .  A
C91         C612   1.479       .  S
O92        Cr108   1.998       .  S
O93        Cr108   1.981       .  S
O93          C94   1.263       .  A
C94          O95   1.267       .  A
C94        C1116   1.481       .  S
O95        Cr109   1.999       .  S
O96        Cr109   2.010       .  S
O96          C97   1.270       .  A
C97         C588   1.479       .  S
O98        Cr107   1.995       .  S
O98         C106   1.257       .  A
O99        Cr107   2.001       .  S
O99         C100   1.266       .  A
C100        O101   1.265       .  A
C100        C913   1.483       .  S
O101       Cr108   1.992       .  S
O102       Cr108   1.995   1_545  S
O102        C103   1.264       .  A
C103        O104   1.261       .  A
C103        C649   1.471       .  S
O104       Cr109   1.979   1_545  S
O105       Cr109   2.006       .  S
O105        C106   1.260       .  A
C106        C625   1.474       .  S
Cr107       O110   1.772       .  S
Cr108       O110   1.769       .  S
Cr109       O110   1.763       .  S
O111       Cr129   2.003       .  S
O111        C119   1.269       .  A
O112       Cr129   1.989       .  S
O112        C113   1.257       .  A
C113        O114   1.262       .  A
C113        C961   1.479       .  S
O114       Cr130   2.011       .  S
O115       Cr130   1.976       .  S
O115        C116   1.261   1_455  A
C116        O117   1.263       .  A
C116        C505   1.469       .  S
O117       Cr131   1.990   1_655  S
O118       Cr131   2.003       .  S
O118        C119   1.269       .  A
C119        C636   1.487       .  S
O120       Cr129   1.993       .  S
O120        C128   1.258       .  A
O121       Cr129   2.008       .  S
O121        C122   1.271       .  A
C122        O123   1.268       .  A
C122        C564   1.486       .  S
O123       Cr130   1.997       .  S
O124       Cr130   1.996       .  S
O124        C125   1.265       .  A
C125        O126   1.263       .  A
C125        C492   1.477       .  S
O126       Cr131   1.979       .  S
O127       Cr131   2.003       .  S
O127        C128   1.260       .  A
C128        C529   1.475       .  S
Cr129       O132   1.770       .  S
Cr130       O132   1.763       .  S
Cr131       O132   1.766       .  S
O133       Cr151   2.007       .  S
O133        C141   1.270       .  A
O134       Cr151   1.990       .  S
O134        C135   1.256       .  A
C135        O136   1.260       .  A
C135        C433   1.469       .  S
O136       Cr152   2.004       .  S
O137       Cr152   1.975       .  S
O137        C138   1.262   1_556  A
C138        O139   1.268       .  A
C138        C409   1.476       .  S
O139       Cr153   2.004   1_554  S
O140       Cr153   1.997       .  S
O140        C141   1.267       .  A
C141        C996   1.483   1_556  S
O142       Cr151   1.983       .  S
O142        C150   1.257       .  A
O143       Cr151   2.000       .  S
O143        C144   1.268       .  A
C144        O145   1.268       .  A
C144        C457   1.484       .  S
O145       Cr152   2.004       .  S
O146       Cr152   1.997       .  S
O146        C147   1.265       .  A
C147        O148   1.260       .  A
C147        C841   1.471       .  S
O148       Cr153   1.972       .  S
O149       Cr153   2.017       .  S
O149        C150   1.263       .  A
C150        C553   1.486       .  S
Cr151       O154   1.768       .  S
Cr152       O154   1.765       .  S
Cr153       O154   1.769       .  S
O155       Cr173   2.002       .  S
O155        C163   1.269       .  A
O156       Cr173   1.994       .  S
O156        C157   1.259       .  A
C157        O158   1.262       .  A
C157        C468   1.476       .  S
O158       Cr174   2.009       .  S
O159       Cr174   1.973       .  S
O159        C160   1.261       .  A
C160        O161   1.268       .  A
C160        C684   1.480       .  S
O161       Cr175   2.005       .  S
O162       Cr175   2.006       .  S
O162        C163   1.269       .  A
C163        C540   1.481       .  S
O164       Cr173   1.991       .  S
O164        C172   1.257       .  A
O165       Cr173   2.001       .  S
O165        C166   1.267       .  A
C166        O167   1.267       .  A
C166        C361   1.486       .  S
O167       Cr174   2.001       .  S
O168       Cr174   2.005       .  S
O168        C169   1.267       .  A
C169        O170   1.262       .  A
C169        C876   1.480       .  S
O170       Cr175   1.981       .  S
O171       Cr175   2.008       .  S
O171        C172   1.262       .  A
C172        C396   1.479       .  S
Cr173       O176   1.772       .  S
Cr174       O176   1.767       .  S
Cr175       O176   1.765       .  S
O177       Cr195   1.997       .  S
O177        C185   1.267       .  A
O178       Cr195   1.988       .  S
O178        C179   1.256       .  A
C179        O180   1.259       .  A
C179        C313   1.475       .  S
O180       Cr196   2.007       .  S
O181       Cr196   1.976       .  S
O181        C182   1.261       .  A
C182        O183   1.266       .  A
C182        C817   1.477       .  S
O183       Cr197   2.003       .  S
O184       Cr197   2.008       .  S
O184        C185   1.269       .  A
C185        C385   1.478       .  S
O186       Cr195   1.985       .  S
O186        C194   1.258       .  A
O187       Cr195   1.996       .  S
O187        C188   1.268       .  A
C188        O189   1.270       .  A
C188        C337   1.483       .  S
O189       Cr196   2.009       .  S
O190       Cr196   1.994       .  S
O190        C191   1.265       .  A
C191        O192   1.263       .  A
C191        C420   1.477       .  S
O192       Cr197   1.979       .  S
O193       Cr197   2.013       .  S
O193        C194   1.262       .  A
C194        C577   1.488       .  S
Cr195       O198   1.767       .  S
Cr196       O198   1.764       .  S
Cr197       O198   1.767       .  S
O199       Cr217   1.997       .  S
O199        C207   1.267       .  A
O200       Cr217   1.996       .  S
O200        C201   1.259       .  A
C201        O202   1.262       .  A
C201        C372   1.476       .  S
O202       Cr218   2.007       .  S
O203       Cr218   1.972       .  S
O203        C204   1.261       .  A
C204        O205   1.267       .  A
C204       C1092   1.478       .  S
O205       Cr219   2.010       .  S
O206       Cr219   1.998       .  S
O206        C207   1.266       .  A
C207        C324   1.474       .  S
O208       Cr217   1.991       .  S
O208        C216   1.258       .  A
O209       Cr217   2.000       .  S
O209        C210   1.267       .  A
C210        O211   1.267       .  A
C210        C300   1.482       .  S
O211       Cr218   2.000       .  S
O212       Cr218   1.999       .  S
O212        C213   1.267       .  A
C213        O214   1.262       .  A
C213        C660   1.477       .  S
O214       Cr219   1.980       .  S
O215       Cr219   2.009       .  S
O215        C216   1.263       .  A
C216        C756   1.473       .  S
Cr217       O220   1.768       .  S
Cr218       O220   1.760       .  S
Cr219       O220   1.764       .  S
O221       Cr239   2.000       .  S
O221        C229   1.268       .  A
O222       Cr239   1.990       .  S
O222        C223   1.257       .  A
C223        O224   1.259       .  A
C223        C289   1.472       .  S
O224       Cr240   2.002       .  S
O225       Cr240   1.974       .  S
O225        C226   1.261       .  A
C226        O227   1.265       .  A
C226        C516   1.470       .  S
O227       Cr241   1.994       .  S
O228       Cr241   2.008       .  S
O228        C229   1.270       .  A
C229        C708   1.483       .  S
O230       Cr239   1.980       .  S
O230        C238   1.258       .  A
O231       Cr239   1.991       .  S
O231        C232   1.266       .  A
C232        O233   1.269       .  A
C232        C444   1.483   1_545  S
O233       Cr240   2.005       .  S
O234       Cr240   1.993   1_565  S
O234        C235   1.265       .  A
C235        O236   1.264   1_565  A
C235        C276   1.479       .  S
O236       Cr241   1.988       .  S
O237       Cr241   2.008       .  S
O237        C238   1.262       .  A
C238       C1068   1.479       .  S
Cr239       O242   1.768       .  S
Cr240       O242   1.763       .  S
Cr241       O242   1.767       .  S
O243       Cr261   1.988       .  S
O243        C251   1.266       .  A
O244       Cr261   1.988       .  S
O244        C245   1.260       .  A
C245        O246   1.265       .  A
C245        C348   1.487       .  S
O246       Cr262   2.011       .  S
O247       Cr262   1.989       .  S
O247        C248   1.265       .  A
C248        O249   1.266       .  A
C248        C265   1.479       .  S
O249       Cr263   1.993       .  S
O250       Cr263   2.003       .  S
O250        C251   1.269       .  A
C251        C601   1.481       .  S
O252       Cr261   1.987       .  S
O252        C260   1.257       .  A
O253       Cr261   1.992       .  S
O253        C254   1.265       .  A
C254        O255   1.268       .  A
C254        C721   1.474       .  S
O255       Cr262   2.007       .  S
O256       Cr262   2.008   1_556  S
O256        C257   1.267       .  A
C257        O258   1.259   1_556  A
C257        C481   1.474       .  S
O258       Cr263   1.969       .  S
O259       Cr263   2.006       .  S
O259        C260   1.259       .  A
C260        C804   1.475       .  S
Cr261       O264   1.768       .  S
Cr262       O264   1.763       .  S
Cr263       O264   1.765       .  S
C265        C266   1.403       .  A
C265        C270   1.406       .  A
C266        C267   1.401       .  A
C266        H279   1.083       .  S
C267        C268   1.408       .  A
C267        H280   1.083       .  S
C268        C269   1.406       .  A
C268        C271   1.490   1_554  S
C269        C270   1.396       .  A
C269        H281   1.080   1_554  S
C270        H282   1.083       .  S
C271        C272   1.354       .  D
C271        H283   1.082   1_556  S
C272        C273   1.494       .  S
C272        H284   1.084       .  S
C273        C274   1.409       .  A
C273        C278   1.408       .  A
C274        C275   1.403       .  A
C274        H285   1.083       .  S
C275        C276   1.403       .  A
C275        H286   1.083       .  S
C276        C277   1.405       .  A
C277        C278   1.395       .  A
C277        H287   1.083       .  S
C278        H288   1.079       .  S
C289        C290   1.402       .  A
C289        C294   1.405       .  A
C290        C291   1.394       .  A
C290        H303   1.083       .  S
C291        C292   1.402       .  A
C291        H304   1.084       .  S
C292        C293   1.407       .  A
C292        C295   1.482       .  S
C293        C294   1.404       .  A
C293        H305   1.082       .  S
C294        H306   1.084       .  S
C295        C296   1.349       .  D
C295        H307   1.085       .  S
C296        C297   1.492       .  S
C296        H308   1.086       .  S
C297        C298   1.407       .  A
C297        C302   1.407       .  A
C298        C299   1.405       .  A
C298        H309   1.083       .  S
C299        C300   1.406       .  A
C299        H310   1.083       .  S
C300        C301   1.404       .  A
C301        C302   1.394       .  A
C301        H311   1.083       .  S
C302        H312   1.081       .  S
C313        C314   1.405       .  A
C313        C318   1.402       .  A
C314        C315   1.405       .  A
C314        H327   1.083       .  S
C315        C316   1.406       .  A
C315        H328   1.083       .  S
C316        C317   1.407       .  A
C316        C319   1.489       .  S
C317        C318   1.393       .  A
C317        H329   1.082       .  S
C318        H330   1.084       .  S
C319        C320   1.349       .  D
C319        H331   1.085       .  S
C320        C321   1.483       .  S
C320        H332   1.086       .  S
C321        C322   1.402       .  A
C321        C326   1.408       .  A
C322        C323   1.393       .  A
C322        H333   1.084       .  S
C323        C324   1.403       .  A
C323        H334   1.084       .  S
C324        C325   1.405       .  A
C325        C326   1.404       .  A
C325        H335   1.082       .  S
C326        H336   1.082       .  S
C337        C338   1.405       .  A
C337        C342   1.407       .  A
C338        C339   1.395       .  A
C338        H351   1.083       .  S
C339        C340   1.402       .  A
C339        H352   1.084       .  S
C340        C341   1.409       .  A
C340        C343   1.488       .  S
C341        C342   1.406       .  A
C341        H353   1.082       .  S
C342        H354   1.083       .  S
C343        C344   1.350       .  D
C343        H355   1.085       .  S
C344        C345   1.495       .  S
C344        H356   1.086       .  S
C345        C346   1.408       .  A
C345        C350   1.406       .  A
C346        C347   1.406       .  A
C346        H357   1.083       .  S
C347        C348   1.406       .  A
C347        H358   1.083       .  S
C348        C349   1.407       .  A
C349        C350   1.394       .  A
C349        H359   1.083       .  S
C350        H360   1.081       .  S
C361        C362   1.406       .  A
C361        C366   1.406       .  A
C362        C363   1.405       .  A
C362        H375   1.083       .  S
C363        C364   1.408       .  A
C363        H376   1.083       .  S
C364        C365   1.408       .  A
C364        C367   1.497       .  S
C365        C366   1.397       .  A
C365        H377   1.080       .  S
C366        H378   1.083       .  S
C367        C368   1.352       .  D
C367        H379   1.085       .  S
C368        C369   1.490       .  S
C368        H380   1.084       .  S
C369        C370   1.404       .  A
C369        C374   1.409       .  A
C370        C371   1.397       .  A
C370        H381   1.083       .  S
C371        C372   1.402       .  A
C371        H382   1.083       .  S
C372        C373   1.405       .  A
C373        C374   1.405       .  A
C373        H383   1.083       .  S
C374        H384   1.082       .  S
C385        C386   1.403       .  A
C385        C390   1.406       .  A
C386        C387   1.396       .  A
C386        H399   1.083       .  S
C387        C388   1.404       .  A
C387        H400   1.083       .  S
C388        C389   1.410       .  A
C388        C391   1.490       .  S
C389        C390   1.405       .  A
C389        H401   1.081       .  S
C390        H402   1.083       .  S
C391        C392   1.351       .  D
C391        H403   1.085       .  S
C392        C393   1.494       .  S
C392        H404   1.085       .  S
C393        C394   1.408       .  A
C393        C398   1.407       .  A
C394        C395   1.397       .  A
C394        H405   1.081       .  S
C395        C396   1.404       .  A
C395        H406   1.083       .  S
C396        C397   1.404       .  A
C397        C398   1.404       .  A
C397        H407   1.083       .  S
C398        H408   1.083       .  S
C409        C410   1.401       .  A
C409        C414   1.406       .  A
C410        C411   1.403       .  A
C410        H423   1.083       .  S
C411        C412   1.409       .  A
C411        H424   1.083       .  S
C412        C413   1.405       .  A
C412        C415   1.488       .  S
C413        C414   1.393       .  A
C413        H425   1.080       .  S
C414        H426   1.084       .  S
C415        C416   1.353       .  D
C415        H427   1.084       .  S
C416        C417   1.488       .  S
C416        H428   1.084       .  S
C417        C418   1.408       .  A
C417        C422   1.405       .  A
C418        C419   1.403       .  A
C418        H429   1.083       .  S
C419        C420   1.403       .  A
C419        H430   1.083       .  S
C420        C421   1.405       .  A
C421        C422   1.392       .  A
C421        H431   1.083       .  S
C422        H432   1.081       .  S
C433        C434   1.401       .  A
C433        C438   1.404       .  A
C434        C435   1.397       .  A
C434        H447   1.083       .  S
C435        C436   1.404       .  A
C435        H448   1.084       .  S
C436        C437   1.408       .  A
C436        C439   1.485       .  S
C437        C438   1.403       .  A
C437        H449   1.082       .  S
C438        H450   1.083       .  S
C439        C440   1.350       .  D
C439        H451   1.084       .  S
C440        C441   1.492       .  S
C440        H452   1.086       .  S
C441        C442   1.406       .  A
C441        C446   1.408       .  A
C442        C443   1.403   1_565  A
C442        H453   1.083       .  S
C443        C444   1.407   1_545  A
C443        H454   1.083       .  S
C444        C445   1.405       .  A
C445        C446   1.395       .  A
C445        H455   1.083       .  S
C446        H456   1.081       .  S
C457        C458   1.406       .  A
C457        C462   1.405       .  A
C458        C459   1.405       .  A
C458        H471   1.083       .  S
C459        C460   1.408       .  A
C459        H472   1.083       .  S
C460        C461   1.408       .  A
C460        C463   1.496       .  S
C461        C462   1.396       .  A
C461        H473   1.081       .  S
C462        H474   1.083       .  S
C463        C464   1.351       .  D
C463        H475   1.086       .  S
C464        C465   1.487       .  S
C464        H476   1.084       .  S
C465        C466   1.403       .  A
C465        C470   1.409       .  A
C466        C467   1.396       .  A
C466        H477   1.084       .  S
C467        C468   1.403       .  A
C467        H478   1.084       .  S
C468        C469   1.406       .  A
C469        C470   1.406       .  A
C469        H479   1.083       .  S
C470        H480   1.082       .  S
C481        C482   1.400       .  A
C481        C486   1.406       .  A
C482        C483   1.403       .  A
C482        H495   1.083       .  S
C483        C484   1.410       .  A
C483        H496   1.083       .  S
C484        C485   1.404       .  A
C484        C487   1.489       .  S
C485        C486   1.392       .  A
C485        H497   1.080       .  S
C486        H498   1.084       .  S
C487        C488   1.354       .  D
C487        H499   1.082       .  S
C488        C489   1.490   1_655  S
C488        H500   1.083       .  S
C489        C490   1.409       .  A
C489        C494   1.405   1_455  A
C490        C491   1.403       .  A
C490        H501   1.083       .  S
C491        C492   1.402       .  A
C491        H502   1.083       .  S
C492        C493   1.405       .  A
C493        C494   1.392   1_455  A
C493        H503   1.083       .  S
C494        H504   1.080       .  S
C505        C506   1.402       .  A
C505        C510   1.403       .  A
C506        C507   1.401       .  A
C506        H519   1.083       .  S
C507        C508   1.408       .  A
C507        H520   1.083       .  S
C508        C509   1.405       .  A
C508        C511   1.484       .  S
C509        C510   1.390       .  A
C509        H521   1.081       .  S
C510        H522   1.084       .  S
C511        C512   1.352       .  D
C511        H523   1.083       .  S
C512        C513   1.485   1_565  S
C512        H524   1.084   1_565  S
C513        C514   1.408       .  A
C513        C518   1.405       .  A
C514        C515   1.400       .  A
C514        H525   1.083       .  S
C515        C516   1.400       .  A
C515        H526   1.083       .  S
C516        C517   1.404       .  A
C517        C518   1.391       .  A
C517        H527   1.084       .  S
C518        H528   1.080   1_545  S
C529        C530   1.404       .  A
C529        C534   1.402       .  A
C530        C531   1.404       .  A
C530        H543   1.083       .  S
C531        C532   1.407       .  A
C531        H544   1.083       .  S
C532        C533   1.409       .  A
C532        C535   1.495       .  S
C533        C534   1.396       .  A
C533        H545   1.080       .  S
C534        H546   1.084       .  S
C535        C536   1.351       .  D
C535        H547   1.086       .  S
C536        C537   1.487       .  S
C536        H548   1.084       .  S
C537        C538   1.402       .  A
C537        C542   1.409       .  A
C538        C539   1.395       .  A
C538        H549   1.084       .  S
C539        C540   1.405       .  A
C539        H550   1.083       .  S
C540        C541   1.406       .  A
C541        C542   1.407       .  A
C541        H551   1.083       .  S
C542        H552   1.082       .  S
C553        C554   1.408       .  A
C553        C558   1.407       .  A
C554        C555   1.392       .  A
C554        H567   1.083       .  S
C555        C556   1.398       .  A
C555        H568   1.084       .  S
C556        C557   1.411       .  A
C556        C559   1.487       .  S
C557        C558   1.410       .  A
C557        H569   1.083       .  S
C558        H570   1.083       .  S
C559        C560   1.343       .  D
C559        H571   1.086       .  S
C560        C561   1.490       .  S
C560        H572   1.087       .  S
C561        C562   1.400       .  A
C561        C566   1.412       .  A
C562        C563   1.395       .  A
C562        H573   1.084       .  S
C563        C564   1.408       .  A
C563        H574   1.083       .  S
C564        C565   1.405       .  A
C565        C566   1.407       .  A
C565        H575   1.083       .  S
C566        H576   1.082       .  S
C577        C578   1.407       .  A
C577        C582   1.407       .  A
C578        C579   1.409       .  A
C578        H591   1.083       .  S
C579        C580   1.409       .  A
C579        H592   1.083       .  S
C580        C581   1.406       .  A
C580        C583   1.497       .  S
C581        C582   1.392       .  A
C581        H593   1.081       .  S
C582        H594   1.083       .  S
C583        C584   1.352       .  D
C583        H595   1.085       .  S
C584        C585   1.491       .  S
C584        H596   1.085       .  S
C585        C586   1.404       .  A
C585        C590   1.410       .  A
C586        C587   1.395       .  A
C586        H597   1.083       .  S
C587        C588   1.402       .  A
C587        H598   1.084       .  S
C588        C589   1.407       .  A
C589        C590   1.407       .  A
C589        H599   1.083       .  S
C590        H600   1.082       .  S
C601        C602   1.405       .  A
C601        C606   1.407       .  A
C602        C603   1.401       .  A
C602        H615   1.083       .  S
C603        C604   1.405       .  A
C603        H616   1.083       .  S
C604        C605   1.404       .  A
C604        C607   1.484       .  S
C605        C606   1.395       .  A
C605        H617   1.082       .  S
C606        H618   1.083       .  S
C607        C608   1.349       .  D
C607        H619   1.086       .  S
C608        C609   1.485       .  S
C608        H620   1.086       .  S
C609        C610   1.406       .  A
C609        C614   1.404       .  A
C610        C611   1.403       .  A
C610        H621   1.083       .  S
C611        C612   1.404       .  A
C611        H622   1.083       .  S
C612        C613   1.406       .  A
C613        C614   1.393       .  A
C613        H623   1.083       .  S
C614        H624   1.082       .  S
C625        C626   1.401       .  A
C625        C630   1.406       .  A
C626        C627   1.397       .  A
C626        H639   1.084       .  S
C627        C628   1.405       .  A
C627        H640   1.083       .  S
C628        C629   1.409       .  A
C628        C631   1.491       .  S
C629        C630   1.405       .  A
C629        H641   1.082       .  S
C630        H642   1.084       .  S
C631        C632   1.352       .  D
C631        H643   1.085       .  S
C632        C633   1.495       .  S
C632        H644   1.085       .  S
C633        C634   1.407       .  A
C633        C638   1.407       .  A
C634        C635   1.406   1_655  A
C634        H645   1.083       .  S
C635        C636   1.407       .  A
C635        H646   1.083       .  S
C636        C637   1.406   1_455  A
C637        C638   1.397       .  A
C637        H647   1.083       .  S
C638        H648   1.081       .  S
C649        C650   1.401       .  A
C649        C654   1.403       .  A
C650        C651   1.403       .  A
C650        H663   1.083       .  S
C651        C652   1.409       .  A
C651        H664   1.083       .  S
C652        C653   1.406       .  A
C652        C655   1.489       .  S
C653        C654   1.392       .  A
C653        H665   1.081       .  S
C654        H666   1.084       .  S
C655        C656   1.353       .  D
C655        H667   1.083       .  S
C656        C657   1.489       .  S
C656        H668   1.084       .  S
C657        C658   1.409       .  A
C657        C662   1.406       .  A
C658        C659   1.401       .  A
C658        H669   1.083       .  S
C659        C660   1.400       .  A
C659        H670   1.083       .  S
C660        C661   1.407       .  A
C661        C662   1.395       .  A
C661        H671   1.083       .  S
C662        H672   1.080       .  S
C673        C674   1.403       .  A
C673        C678   1.405       .  A
C674        C675   1.403       .  A
C674        H687   1.083       .  S
C675        C676   1.408       .  A
C675        H688   1.083       .  S
C676        C677   1.405       .  A
C676        C679   1.489       .  S
C677        C678   1.393       .  A
C677        H689   1.081       .  S
C678        H690   1.084       .  S
C679        C680   1.354       .  D
C679        H691   1.082       .  S
C680        C681   1.492       .  S
C680        H692   1.084       .  S
C681        C682   1.410       .  A
C681        C686   1.405       .  A
C682        C683   1.403       .  A
C682        H693   1.083       .  S
C683        C684   1.401       .  A
C683        H694   1.083       .  S
C684        C685   1.407       .  A
C685        C686   1.394       .  A
C685        H695   1.084       .  S
C686        H696   1.079       .  S
C697        C698   1.403       .  A
C697        C702   1.407       .  A
C698        C699   1.395       .  A
C698        H711   1.084       .  S
C699        C700   1.402       .  A
C699        H712   1.084       .  S
C700        C701   1.408       .  A
C700        C703   1.486       .  S
C701        C702   1.408       .  A
C701        H713   1.082       .  S
C702        H714   1.083       .  S
C703        C704   1.351       .  D
C703        H715   1.085       .  S
C704        C705   1.496       .  S
C704        H716   1.086       .  S
C705        C706   1.408       .  A
C705        C710   1.408       .  A
C706        C707   1.407       .  A
C706        H717   1.083       .  S
C707        C708   1.407       .  A
C707        H718   1.083       .  S
C708        C709   1.403       .  A
C709        C710   1.396       .  A
C709        H719   1.083       .  S
C710        H720   1.081       .  S
C721        C722   1.402   1_554  A
C721        C726   1.405   1_554  A
C722        C723   1.394       .  A
C722        H735   1.083   1_556  S
C723        C724   1.402       .  A
C723        H736   1.084       .  S
C724        C725   1.408       .  A
C724        C727   1.482       .  S
C725        C726   1.403       .  A
C725        H737   1.082       .  S
C726        H738   1.083   1_556  S
C727        C728   1.349       .  D
C727        H739   1.085       .  S
C728        C729   1.490       .  S
C728        H740   1.086       .  S
C729        C730   1.406       .  A
C729        C734   1.407       .  A
C730        C731   1.404       .  A
C730        H741   1.083       .  S
C731        C732   1.405       .  A
C731        H742   1.083       .  S
C732        C733   1.404       .  A
C733        C734   1.393       .  A
C733        H743   1.083       .  S
C734        H744   1.081       .  S
C745        C746   1.406       .  A
C745        C750   1.404       .  A
C746        C747   1.404       .  A
C746        H759   1.083       .  S
C747        C748   1.407       .  A
C747        H760   1.083       .  S
C748        C749   1.408       .  A
C748        C751   1.493       .  S
C749        C750   1.396       .  A
C749        H761   1.081       .  S
C750        H762   1.083       .  S
C751        C752   1.350       .  D
C751        H763   1.086       .  S
C752        C753   1.485       .  S
C752        H764   1.084       .  S
C753        C754   1.402       .  A
C753        C758   1.408       .  A
C754        C755   1.396       .  A
C754        H765   1.084       .  S
C755        C756   1.402       .  A
C755        H766   1.084       .  S
C756        C757   1.405       .  A
C757        C758   1.405       .  A
C757        H767   1.083       .  S
C758        H768   1.082       .  S
C769        C770   1.403       .  A
C769        C774   1.405       .  A
C770        C771   1.396   1_554  A
C770        H783   1.083       .  S
C771        C772   1.403       .  A
C771        H784   1.084       .  S
C772        C773   1.409       .  A
C772        C775   1.488       .  S
C773        C774   1.405   1_556  A
C773        H785   1.082       .  S
C774        H786   1.083       .  S
C775        C776   1.351       .  D
C775        H787   1.084       .  S
C776        C777   1.496       .  S
C776        H788   1.086       .  S
C777        C778   1.408       .  A
C777        C782   1.408       .  A
C778        C779   1.405   1_455  A
C778        H789   1.083       .  S
C779        C780   1.406   1_655  A
C779        H790   1.083       .  S
C780        C781   1.406       .  A
C781        C782   1.397       .  A
C781        H791   1.083       .  S
C782        H792   1.080       .  S
C793        C794   1.402       .  A
C793        C798   1.406       .  A
C794        C795   1.392       .  A
C794        H807   1.083       .  S
C795        C796   1.401       .  A
C795        H808   1.084       .  S
C796        C797   1.408       .  A
C796        C799   1.482       .  S
C797        C798   1.406       .  A
C797        H809   1.082       .  S
C798        H810   1.083       .  S
C799        C800   1.348       .  D
C799        H811   1.087       .  S
C800        C801   1.488       .  S
C800        H812   1.085       .  S
C801        C802   1.405       .  A
C801        C806   1.407       .  A
C802        C803   1.406   1_455  A
C802        H813   1.083       .  S
C803        C804   1.407       .  A
C803        H814   1.083       .  S
C804        C805   1.401       .  A
C805        C806   1.392   1_655  A
C805        H815   1.083       .  S
C806        H816   1.083       .  S
C817        C818   1.403       .  A
C817        C822   1.405       .  A
C818        C819   1.405       .  A
C818        H831   1.083       .  S
C819        C820   1.408       .  A
C819        H832   1.083       .  S
C820        C821   1.404       .  A
C820        C823   1.488       .  S
C821        C822   1.393       .  A
C821        H833   1.082       .  S
C822        H834   1.084       .  S
C823        C824   1.354       .  D
C823        H835   1.082       .  S
C824        C825   1.493       .  S
C824        H836   1.085       .  S
C825        C826   1.409       .  A
C825        C830   1.406       .  A
C826        C827   1.403       .  A
C826        H837   1.083       .  S
C827        C828   1.403       .  A
C827        H838   1.083       .  S
C828        C829   1.408       .  A
C829        C830   1.395       .  A
C829        H839   1.083       .  S
C830        H840   1.079       .  S
C841        C842   1.401       .  A
C841        C846   1.405       .  A
C842        C843   1.402       .  A
C842        H855   1.083       .  S
C843        C844   1.408       .  A
C843        H856   1.083       .  S
C844        C845   1.404       .  A
C844        C847   1.485   1_556  S
C845        C846   1.392       .  A
C845        H857   1.081   1_556  S
C846        H858   1.084       .  S
C847        C848   1.352       .  D
C847        H859   1.085   1_554  S
C848        C849   1.484       .  S
C848        H860   1.085       .  S
C849        C850   1.408       .  A
C849        C854   1.405       .  A
C850        C851   1.402       .  A
C850        H861   1.083       .  S
C851        C852   1.401       .  A
C851        H862   1.083       .  S
C852        C853   1.404       .  A
C853        C854   1.392       .  A
C853        H863   1.084       .  S
C854        H864   1.082       .  S
C865        C866   1.403       .  A
C865        C870   1.409       .  A
C866        C867   1.401       .  A
C866        H879   1.083       .  S
C867        C868   1.408       .  A
C867        H880   1.083       .  S
C868        C869   1.406       .  A
C868        C871   1.493       .  S
C869        C870   1.400       .  A
C869        H881   1.081       .  S
C870        H882   1.083       .  S
C871        C872   1.355       .  D
C871        H883   1.084       .  S
C872        C873   1.496       .  S
C872        H884   1.084       .  S
C873        C874   1.410       .  A
C873        C878   1.407       .  A
C874        C875   1.407       .  A
C874        H885   1.083       .  S
C875        C876   1.403       .  A
C875        H886   1.083       .  S
C876        C877   1.405       .  A
C877        C878   1.395       .  A
C877        H887   1.084       .  S
C878        H888   1.081       .  S
C889        C890   1.401       .  A
C889        C894   1.406       .  A
C890        C891   1.405       .  A
C890        H903   1.083       .  S
C891        C892   1.410       .  A
C891        H904   1.083       .  S
C892        C893   1.404       .  A
C892        C895   1.491       .  S
C893        C894   1.392       .  A
C893        H905   1.081       .  S
C894        H906   1.084       .  S
C895        C896   1.355       .  D
C895        H907   1.083       .  S
C896        C897   1.491       .  S
C896        H908   1.084       .  S
C897        C898   1.409   1_455  A
C897        C902   1.405       .  A
C898        C899   1.403       .  A
C898        H909   1.083       .  S
C899        C900   1.402       .  A
C899        H910   1.083       .  S
C900        C901   1.406       .  A
C901        C902   1.394   1_655  A
C901        H911   1.083       .  S
C902        H912   1.080       .  S
C913        C914   1.406       .  A
C913        C918   1.408   1_565  A
C914        C915   1.404   1_565  A
C914        H927   1.083       .  S
C915        C916   1.406       .  A
C915        H928   1.083       .  S
C916        C917   1.402       .  A
C916        C919   1.482       .  S
C917        C918   1.394       .  A
C917        H929   1.083       .  S
C918        H930   1.083       .  S
C919        C920   1.349       .  D
C919        H931   1.087       .  S
C920        C921   1.483       .  S
C920        H932   1.086       .  S
C921        C922   1.408       .  A
C921        C926   1.401   1_655  A
C922        C923   1.408       .  A
C922        H933   1.083       .  S
C923        C924   1.404   1_655  A
C923        H934   1.083       .  S
C924        C925   1.407       .  A
C925        C926   1.390       .  A
C925        H935   1.083       .  S
C926        H936   1.083       .  S
C937        C938   1.404       .  A
C937        C942   1.409       .  A
C938        C939   1.404       .  A
C938        H951   1.083       .  S
C939        C940   1.407       .  A
C939        H952   1.083       .  S
C940        C941   1.404       .  A
C940        C943   1.488       .  S
C941        C942   1.396       .  A
C941        H953   1.082       .  S
C942        H954   1.083       .  S
C943        C944   1.351       .  D
C943        H955   1.086       .  S
C944        C945   1.487       .  S
C944        H956   1.086       .  S
C945        C946   1.407       .  A
C945        C950   1.402       .  A
C946        C947   1.406       .  A
C946        H957   1.083       .  S
C947        C948   1.405       .  A
C947        H958   1.083       .  S
C948        C949   1.408       .  A
C949        C950   1.393       .  A
C949        H959   1.083       .  S
C950        H960   1.083       .  S
C961        C962   1.405       .  A
C961        C966   1.406       .  A
C962        C963   1.394   1_565  A
C962        H975   1.084       .  S
C963        C964   1.402       .  A
C963        H976   1.084       .  S
C964        C965   1.408       .  A
C964        C967   1.485       .  S
C965        C966   1.406   1_545  A
C965        H977   1.082       .  S
C966        H978   1.083       .  S
C967        C968   1.351       .  D
C967        H979   1.084       .  S
C968        C969   1.496       .  S
C968        H980   1.086       .  S
C969        C970   1.409       .  A
C969        C974   1.407       .  A
C970        C971   1.407       .  A
C970        H981   1.083       .  S
C971        C972   1.405       .  A
C971        H982   1.083       .  S
C972        C973   1.405       .  A
C973        C974   1.394       .  A
C973        H983   1.083       .  S
C974        H984   1.080       .  S
C985        C986   1.403       .  A
C985        C990   1.402       .  A
C986        C987   1.397   1_545  A
C986        H999   1.084       .  S
C987        C988   1.402       .  A
C987       H1000   1.083       .  S
C988        C989   1.410       .  A
C988        C991   1.489       .  S
C989        C990   1.403   1_565  A
C989       H1001   1.082       .  S
C990       H1002   1.083       .  S
C991        C992   1.348       .  D
C991       H1003   1.084       .  S
C992        C993   1.491       .  S
C992       H1004   1.086       .  S
C993        C994   1.402       .  A
C993        C998   1.412       .  A
C994        C995   1.395       .  A
C994       H1005   1.083       .  S
C995        C996   1.406       .  A
C995       H1006   1.083       .  S
C996        C997   1.405       .  A
C997        C998   1.406       .  A
C997       H1007   1.082   1_554  S
C998       H1008   1.081       .  S
C1009      C1010   1.405       .  A
C1009      C1014   1.408       .  A
C1010      C1011   1.406       .  A
C1010      H1023   1.083       .  S
C1011      C1012   1.409       .  A
C1011      H1024   1.083       .  S
C1012      C1013   1.404       .  A
C1012      C1015   1.491       .  S
C1013      C1014   1.392       .  A
C1013      H1025   1.082       .  S
C1014      H1026   1.083       .  S
C1015      C1016   1.354       .  D
C1015      H1027   1.084       .  S
C1016      C1017   1.491       .  S
C1016      H1028   1.085       .  S
C1017      C1018   1.409       .  A
C1017      C1022   1.404       .  A
C1018      C1019   1.403       .  A
C1018      H1029   1.083       .  S
C1019      C1020   1.402       .  A
C1019      H1030   1.083       .  S
C1020      C1021   1.410       .  A
C1021      C1022   1.396       .  A
C1021      H1031   1.083       .  S
C1022      H1032   1.081       .  S
C1033      C1034   1.402       .  A
C1033      C1038   1.407       .  A
C1034      C1035   1.404       .  A
C1034      H1047   1.083       .  S
C1035      C1036   1.410       .  A
C1035      H1048   1.083       .  S
C1036      C1037   1.407       .  A
C1036      C1039   1.494       .  S
C1037      C1038   1.393       .  A
C1037      H1049   1.078       .  S
C1038      H1050   1.084       .  S
C1039      C1040   1.354       .  D
C1039      H1051   1.084       .  S
C1040      C1041   1.489       .  S
C1040      H1052   1.081       .  S
C1041      C1042   1.407       .  A
C1041      C1046   1.406       .  A
C1042      C1043   1.401       .  A
C1042      H1053   1.083       .  S
C1043      C1044   1.405       .  A
C1043      H1054   1.083       .  S
C1044      C1045   1.406       .  A
C1045      C1046   1.396       .  A
C1045      H1055   1.083       .  S
C1046      H1056   1.081       .  S
C1057      C1058   1.404       .  A
C1057      C1062   1.408       .  A
C1058      C1059   1.406       .  A
C1058      H1071   1.083       .  S
C1059      C1060   1.407       .  A
C1059      H1072   1.083       .  S
C1060      C1061   1.403       .  A
C1060      C1063   1.486       .  S
C1061      C1062   1.393       .  A
C1061      H1073   1.083       .  S
C1062      H1074   1.083       .  S
C1063      C1064   1.352       .  D
C1063      H1075   1.085       .  S
C1064      C1065   1.488       .  S
C1064      H1076   1.086       .  S
C1065      C1066   1.409       .  A
C1065      C1070   1.403   1_554  A
C1066      C1067   1.406   1_554  A
C1066      H1077   1.083       .  S
C1067      C1068   1.403       .  A
C1067      H1078   1.083       .  S
C1068      C1069   1.406       .  A
C1069      C1070   1.391       .  A
C1069      H1079   1.083       .  S
C1070      H1080   1.082       .  S
C1081      C1082   1.410       .  A
C1081      C1086   1.404       .  A
C1082      C1083   1.395       .  A
C1082      H1095   1.083       .  S
C1083      C1084   1.398       .  A
C1083      H1096   1.084       .  S
C1084      C1085   1.410       .  A
C1084      C1087   1.485       .  S
C1085      C1086   1.402       .  A
C1085      H1097   1.082       .  S
C1086      H1098   1.083       .  S
C1087      C1088   1.342       .  D
C1087      H1099   1.085       .  S
C1088      C1089   1.486       .  S
C1088      H1100   1.087       .  S
C1089      C1090   1.399       .  A
C1089      C1094   1.413       .  A
C1090      C1091   1.390       .  A
C1090      H1101   1.084       .  S
C1091      C1092   1.405       .  A
C1091      H1102   1.084       .  S
C1092      C1093   1.404       .  A
C1093      C1094   1.408       .  A
C1093      H1103   1.083       .  S
C1094      H1104   1.081       .  S
C1105      C1106   1.407       .  A
C1105      C1110   1.405       .  A
C1106      C1107   1.394       .  A
C1106      H1119   1.083       .  S
C1107      C1108   1.404       .  A
C1107      H1120   1.082       .  S
C1108      C1109   1.406       .  A
C1108      C1111   1.485       .  S
C1109      C1110   1.402       .  A
C1109      H1121   1.083       .  S
C1110      H1122   1.083       .  S
C1111      C1112   1.351       .  D
C1111      H1123   1.086       .  S
C1112      C1113   1.485       .  S
C1112      H1124   1.086       .  S
C1113      C1114   1.407   1_545  A
C1113      C1118   1.403       .  A
C1114      C1115   1.403       .  A
C1114      H1125   1.083       .  S
C1115      C1116   1.404       .  A
C1115      H1126   1.083       .  S
C1116      C1117   1.408   1_565  A
C1117      C1118   1.394       .  A
C1117      H1127   1.083       .  S
C1118      H1128   1.082       .  S
