geometry optimzed in LAMMPS
_audit_creation_date              2020-11-30 
_audit_creation_method            'lammps2cif' 
_symmetry_space_group_name_H-M    'P1' 
_symmetry_Int_Tables_number       1 
_symmetry_cell_setting            triclinic 
loop_ 
_symmetry_equiv_pos_as_xyz 
  x,y,z 
_cell_length_a                    37.72244601476243 
_cell_length_b                    56.851298558188205 
_cell_length_c                    27.121664659441148 
_cell_angle_alpha                 90.07221712691126 
_cell_angle_beta                  90.13478729597054 
_cell_angle_gamma                 89.97295630318602 
loop_ 
_atom_site_label 
_atom_site_type_symbol 
_atom_site_fract_x 
_atom_site_fract_y 
_atom_site_fract_z 
_atom_site_charge 
N1          N  0.80686206  0.10373689  0.18590058    -0.26030
N2          N  0.79517632  0.08324956  0.20222438    -0.33890
C3          C  0.81555443  0.06598328  0.18357569     0.02310
C4          C  0.84083832  0.07615303  0.15362768     0.08330
C5          C  0.83453024  0.10005166  0.15572883    -0.04770
H6          H  0.81179061  0.04742037  0.19049243     0.09000
H7          H  0.84923717  0.11376952  0.13723650     0.10200
Cu8        Cu  0.75119588  0.07966822  0.24732409     0.44170
Cu9        Cu  0.78604055  0.13589494  0.20691078     0.41990
Cu10       Cu  0.71554550  0.13410725  0.29618130     0.43880
N11         N  0.70689036  0.08138767  0.29232052    -0.33420
N12         N  0.69492136  0.10113330  0.31169213    -0.27670
C13         C  0.66657343  0.09633140  0.33975969    -0.03770
C14         C  0.65959346  0.07228160  0.33761810     0.08440
C15         C  0.68605025  0.06353239  0.30684594     0.02240
H16         H  0.65253970  0.10968799  0.36008307     0.09890
H17         H  0.68993949  0.04562621  0.29467039     0.08970
N18         N  0.73711828  0.16510303  0.26942908    -0.34870
N19         N  0.76292689  0.16571836  0.23661232    -0.27050
C20         C  0.77065831  0.18825560  0.22630424    -0.02290
C21         C  0.74850385  0.20259484  0.25376861     0.06320
C22         C  0.72756557  0.18725677  0.28066330     0.04410
H23         H  0.79046515  0.19373556  0.19990680     0.09520
H24         H  0.70700607  0.19180790  0.30677749     0.08350
O25         O  0.95826951  0.03804259  0.99796122    -0.71690
O26         O  0.03320607  0.00551670  0.91814310    -0.72670
O27         O  0.95762694  0.00440021  0.92089694    -0.61290
O28         O  0.03339073  0.03917244  0.99555003    -0.69700
O29         O  0.03727704  0.00938796  0.04828730    -0.69250
O30         O  0.95824120  0.97645238  0.97756979    -0.60500
O31         O  0.03300731  0.97586897  0.97133669    -0.73010
O32         O  0.96205580  0.01006865  0.05461406    -0.71790
Cu33       Cu  0.99556746  0.02280016  0.95618519     1.04560
Cu34       Cu  0.99772022  0.99196397  0.01488783     1.04330
C35         C  0.94845826  0.02928085  0.03907664     0.94510
C36         C  0.04459323  0.98539179  0.93191844     0.93650
C37         C  0.94552869  0.98500807  0.93774616     0.85800
C38         C  0.04753378  0.02953322  0.03328085     0.92070
N39         N  0.30811317  0.10221493  0.29287852    -0.26030
N40         N  0.29713609  0.08262817  0.27158954    -0.33890
C41         C  0.31722348  0.06463086  0.28760079     0.02310
C42         C  0.34198472  0.07317493  0.32123489     0.08330
C43         C  0.33502696  0.09716418  0.32356176    -0.04770
H44         H  0.31393873  0.04672686  0.27500948     0.09000
H45         H  0.34794532  0.11019207  0.34637843     0.10200
Cu46       Cu  0.25400567  0.08108573  0.22403546     0.44170
Cu47       Cu  0.28715878  0.13521609  0.27857241     0.41990
Cu48       Cu  0.21033805  0.13686549  0.20016372     0.43880
N49         N  0.20785735  0.08449175  0.18280475    -0.33420
N50         N  0.19205184  0.10483800  0.17430579    -0.27670
C51         C  0.16258552  0.10107930  0.14754035    -0.03770
C52         C  0.15944775  0.07715669  0.13880799     0.08440
C53         C  0.18873200  0.06720919  0.16175928     0.02240
H54         H  0.14496282  0.11486980  0.13513092     0.09890
H55         H  0.19531183  0.04872951  0.16412480     0.08970
N56         N  0.23383836  0.16669884  0.22920235    -0.34870
N57         N  0.26265349  0.16618134  0.25702127    -0.27050
C58         C  0.27193217  0.18835470  0.26866426    -0.02290
C59         C  0.24750841  0.20340211  0.24750963     0.06320
C60         C  0.22366309  0.18916522  0.22294079     0.04410
H61         H  0.29440913  0.19312463  0.29141667     0.09520
H62         H  0.20077601  0.19471179  0.20182364     0.08350
N63         N  0.68161951  0.90269474  0.69324399    -0.26030
N64         N  0.69866161  0.92283787  0.69904994    -0.33890
C65         C  0.68121258  0.93983704  0.67451483     0.02310
C66         C  0.65159921  0.92994111  0.65269286     0.08330
C67         C  0.65261717  0.90640380  0.66541916    -0.04770
H68         H  0.68916361  0.95810931  0.67340632     0.09000
H69         H  0.63400059  0.89287987  0.65454770     0.10200
Cu70       Cu  0.74428953  0.92652053  0.74100527     0.44170
Cu71       Cu  0.69952135  0.87074461  0.72046935     0.41990
Cu72       Cu  0.78526301  0.87218750  0.77977549     0.43880
N73         N  0.78915392  0.92505763  0.78509122    -0.33420
N74         N  0.80429211  0.90515142  0.79879678    -0.27670
C75         C  0.83259905  0.91005005  0.82714586    -0.03770
C76         C  0.83548759  0.93426737  0.83174067     0.08440
C77         C  0.80738857  0.94318048  0.80447204     0.02240
H78         H  0.84998263  0.89685878  0.84268148     0.09890
H79         H  0.80024815  0.96145137  0.79961331     0.08970
N80         N  0.75892386  0.84137763  0.76180718    -0.34870
N81         N  0.72677269  0.84082300  0.74231960    -0.27050
C82         C  0.71674854  0.81827065  0.73664409    -0.02290
C83         C  0.74412395  0.80402105  0.75278233     0.06320
C84         C  0.77046279  0.81921945  0.76835170     0.04410
H85         H  0.69185127  0.81267393  0.72061725     0.09520
H86         H  0.79601717  0.81452978  0.78365017     0.08350
O87         O  0.53331330  0.96793169  0.49802325    -0.71690
O88         O  0.45972307  0.00200580  0.41797237    -0.72670
O89         O  0.53542341  0.00176260  0.42143029    -0.61290
O90         O  0.45767168  0.96830145  0.49456603    -0.69700
O91         O  0.45685291  0.99707312  0.55012137    -0.69250
O92         O  0.53399957  0.03047612  0.47689574    -0.60500
O93         O  0.45930840  0.03084892  0.47324552    -0.73010
O94         O  0.53224369  0.99667681  0.55363477    -0.71790
Cu95       Cu  0.49657416  0.98396420  0.45605597     1.04560
Cu96       Cu  0.49556523  0.01473168  0.51544966     1.04330
C97         C  0.54446809  0.97706557  0.53819791     0.94510
C98         C  0.44802973  0.02185799  0.43297688     0.93650
C99         C  0.54685941  0.02148994  0.43762893     0.85800
C100        C  0.44490446  0.97758459  0.53359266     0.92070
N101        N  0.30118401  0.90356625  0.67577478    -0.26030
N102        N  0.28299057  0.92341760  0.67880147    -0.33890
C103        C  0.30084243  0.94045624  0.65499981     0.02310
C104        C  0.33185808  0.93087412  0.63665306     0.08330
C105        C  0.33120236  0.90750140  0.65054552    -0.04770
H106        H  0.29247840  0.95862489  0.65274612     0.09000
H107        H  0.35110945  0.89428765  0.64290356     0.10200
Cu108      Cu  0.23635398  0.92695227  0.71871788     0.44170
Cu109      Cu  0.28499508  0.87173614  0.70533345     0.41990
Cu110      Cu  0.20546027  0.87313260  0.77625882     0.43880
N111        N  0.19434285  0.92558439  0.76799276    -0.33420
N112        N  0.18412897  0.90604739  0.79006051    -0.27670
C113        C  0.15776847  0.91106866  0.82151330    -0.03770
C114        C  0.15042280  0.93496572  0.81893943     0.08440
C115        C  0.17434892  0.94355213  0.78444721     0.02240
H116        H  0.14542219  0.89812080  0.84499883     0.09890
H117        H  0.17699824  0.96144012  0.77162276     0.08970
N118        N  0.23098404  0.84216897  0.75735428    -0.34870
N119        N  0.26108053  0.84168447  0.73280130    -0.27050
C120        C  0.27152567  0.81921767  0.72750769    -0.02290
C121        C  0.24648636  0.80455199  0.74930993     0.06320
C122        C  0.22108058  0.82002027  0.76767412     0.04410
H123        H  0.29584115  0.81426263  0.70945614     0.09520
H124        H  0.19675025  0.81580498  0.78648408     0.08350
N125        N  0.81222865  0.60424025  0.81070383    -0.26030
N126        N  0.79486939  0.58420479  0.80566226    -0.33890
C127        C  0.81226180  0.56727199  0.83039893     0.02310
C128        C  0.84232660  0.57698617  0.85195766     0.08330
C129        C  0.84129485  0.60052913  0.83841142    -0.04770
H130        H  0.80308182  0.54931884  0.83303686     0.09000
H131        H  0.86028773  0.61407454  0.84750055     0.10200
Cu132      Cu  0.74854805  0.58047130  0.76493719     0.44170
Cu133      Cu  0.79458854  0.63611977  0.78271002     0.41990
Cu134      Cu  0.70981715  0.63450005  0.72076123     0.43880
N135        N  0.70386240  0.58166090  0.72021954    -0.33420
N136        N  0.68994093  0.60150550  0.70388832    -0.27670
C137        C  0.66160418  0.59654166  0.67566183    -0.03770
C138        C  0.65719445  0.57233937  0.67419256     0.08440
C139        C  0.68463617  0.56349878  0.70288733     0.02240
H140        H  0.64570986  0.60968768  0.65715507     0.09890
H141        H  0.68997234  0.54526272  0.71139229     0.08970
N142        N  0.73550701  0.66536619  0.73998446    -0.34870
N143        N  0.76731947  0.66599332  0.76051733    -0.27050
C144        C  0.77694764  0.68856881  0.76701978    -0.02290
C145        C  0.74964720  0.70274742  0.75037757     0.06320
C146        C  0.72376636  0.68749442  0.73362349     0.04410
H147        H  0.80154406  0.69422538  0.78384911     0.09520
H148        H  0.69842354  0.69212639  0.71758498     0.08350
N149        N  0.79984090  0.40587791  0.19935455    -0.26030
N150        N  0.78806626  0.42559688  0.21936051    -0.33890
C151        C  0.80809951  0.44362321  0.20348183     0.02310
C152        C  0.83365155  0.43483078  0.17179184     0.08330
C153        C  0.82754407  0.41083145  0.17011580    -0.04770
H154        H  0.80400485  0.46180881  0.21379253     0.09000
H155        H  0.84256382  0.39778625  0.14989485     0.10200
Cu156      Cu  0.74498637  0.42712382  0.26666062     0.44170
Cu157      Cu  0.77870670  0.37293338  0.21345056     0.41990
Cu158      Cu  0.70199139  0.37135378  0.29196054     0.43880
N159        N  0.69958706  0.42374607  0.30907370    -0.33420
N160        N  0.68331764  0.40349061  0.31678912    -0.27670
C161        C  0.65410493  0.40734089  0.34390796    -0.03770
C162        C  0.65206885  0.43113007  0.35417960     0.08440
C163        C  0.68137171  0.44100426  0.33165085     0.02240
H164        H  0.63605912  0.39375369  0.35598748     0.09890
H165        H  0.68861479  0.45940649  0.33099707     0.08970
N166        N  0.72698229  0.34144931  0.26569161    -0.34870
N167        N  0.75496549  0.34200496  0.23655576    -0.27050
C168        C  0.76526718  0.31984239  0.22684038    -0.02290
C169        C  0.74273462  0.30450042  0.25120626     0.06320
C170        C  0.71878221  0.31893402  0.27546304     0.04410
H171        H  0.78748932  0.31533393  0.20350930     0.09520
H172        H  0.69743628  0.31358075  0.29953354     0.08350
N173        N  0.31260675  0.60062146  0.72609002    -0.26030
N174        N  0.29855294  0.58072014  0.74186295    -0.33890
C175        C  0.31670357  0.56255726  0.72243498     0.02310
C176        C  0.34342087  0.57145774  0.69280679     0.08330
C177        C  0.33997261  0.59567150  0.69620565    -0.04770
H178        H  0.31018208  0.54426187  0.72830662     0.09000
H179        H  0.35610587  0.60882660  0.67825672     0.10200
Cu180      Cu  0.25409319  0.57926489  0.78672781     0.44170
Cu181      Cu  0.29302111  0.63374794  0.74305851     0.41990
Cu182      Cu  0.20728039  0.63480848  0.80027242     0.43880
N183        N  0.20715171  0.58312146  0.82573328    -0.33420
N184        N  0.18939149  0.60314544  0.82859676    -0.27670
C185        C  0.15938156  0.59958572  0.85414211    -0.03770
C186        C  0.15843020  0.57630108  0.86854027     0.08440
C187        C  0.18913257  0.56635687  0.85009541     0.02240
H188        H  0.13994753  0.61304442  0.86224274     0.09890
H189        H  0.19738023  0.54819484  0.85322505     0.08970
N190        N  0.23342425  0.66484550  0.77703340    -0.34870
N191        N  0.26553132  0.66455198  0.75784386    -0.27050
C192        C  0.27575682  0.68677389  0.74873283    -0.02290
C193        C  0.24860546  0.70197076  0.76244816     0.06320
C194        C  0.22216803  0.68722821  0.78017784     0.04410
H195        H  0.30135567  0.69134662  0.73378687     0.09520
H196        H  0.19634070  0.69217475  0.79386214     0.08350
O197        O  0.96125578  0.50970939  0.95608927    -0.71690
O198        O  0.03528665  0.47621202  0.03564255    -0.72670
O199        O  0.95991924  0.47579446  0.03217011    -0.61290
O200        O  0.03626360  0.51026960  0.95944092    -0.69700
O201        O  0.03584450  0.53825864  0.01672452    -0.69250
O202        O  0.95712696  0.50459624  0.08702494    -0.60500
O203        O  0.03226648  0.50409527  0.09298846    -0.73010
O204        O  0.96038989  0.53869707  0.01071118    -0.71790
Cu205      Cu  0.99826689  0.49200673  0.99394003     1.04560
Cu206      Cu  0.99636933  0.52242853  0.05383182     1.04330
C207        C  0.94908358  0.52950928  0.97058709     0.94510
C208        C  0.04520843  0.48479503  0.07694025     0.93650
C209        C  0.94603198  0.48480628  0.07076420     0.85800
C210        C  0.04816638  0.52959751  0.97680837     0.92070
O211        O  0.53211103  0.49734584  0.45456509    -0.71690
O212        O  0.45868094  0.53008669  0.53599866    -0.72670
O213        O  0.53349135  0.53077519  0.53247617    -0.61290
O214        O  0.45657497  0.49683958  0.45883165    -0.69700
O215        O  0.45878963  0.46776175  0.51344932    -0.69250
O216        O  0.53657483  0.50141591  0.58630658    -0.60500
O217        O  0.46085853  0.50146763  0.59111554    -0.73010
O218        O  0.53398657  0.46808175  0.50879466    -0.71790
Cu219      Cu  0.49517755  0.51473497  0.49352977     1.04560
Cu220      Cu  0.49760835  0.48365407  0.55186866     1.04330
C221        C  0.54466592  0.47764564  0.46893084     0.94510
C222        C  0.44799227  0.52108567  0.57641908     0.93650
C223        C  0.54714749  0.52143253  0.57088451     0.85800
C224        C  0.44540377  0.47708313  0.47485135     0.92070
N225        N  0.17921847  0.40515207  0.22453319    -0.26030
N226        N  0.19604620  0.42495332  0.23507583    -0.33890
C227        C  0.17853304  0.44305605  0.21438454     0.02310
C228        C  0.14907755  0.43421607  0.19035777     0.08330
C229        C  0.15022726  0.41017913  0.19756432    -0.04770
H230        H  0.18652333  0.46129206  0.21692579     0.09000
H231        H  0.13189338  0.39723966  0.18314680     0.10200
Cu232      Cu  0.24169193  0.42667370  0.27769589     0.44170
Cu233      Cu  0.19773574  0.37199526  0.24355785     0.41990
Cu234      Cu  0.28274545  0.37081690  0.30472405     0.43880
N235        N  0.28659063  0.42314188  0.32132588    -0.33420
N236        N  0.30174387  0.40265873  0.33060993    -0.27670
C237        C  0.33050636  0.40615501  0.35896641    -0.03770
C238        C  0.33369047  0.43002489  0.36811635     0.08440
C239        C  0.30527124  0.44025353  0.34376133     0.02240
H240        H  0.34766147  0.39226391  0.37215980     0.09890
H241        H  0.29907572  0.45879660  0.34143941     0.08970
N242        N  0.25714297  0.34098575  0.27933790    -0.34870
N243        N  0.22526286  0.34125043  0.25896491    -0.27050
C244        C  0.21548540  0.31902262  0.24863073    -0.02290
C245        C  0.24276222  0.30420982  0.26263934     0.06320
C246        C  0.26877012  0.31866083  0.28182657     0.04410
H247        H  0.19067677  0.31406123  0.23144742     0.09520
H248        H  0.29401400  0.31332857  0.29718591     0.08350
C249        C  0.39727838  0.43363821  0.39384180     0.24850
C250        C  0.36216929  0.44200169  0.39615821    -0.23260
C251        C  0.35468045  0.46191691  0.42529084     0.19760
C252        C  0.38188363  0.47335169  0.45107166     0.24790
C253        C  0.41678021  0.46492754  0.44845876    -0.23200
C254        C  0.42426423  0.44493284  0.42011553     0.19700
F255        F  0.45790637  0.43664307  0.41704627    -0.13160
F256        F  0.40579920  0.41502240  0.36480054    -0.15520
F257        F  0.37410705  0.49237594  0.47938625    -0.15520
F258        F  0.32094673  0.46993542  0.42992980    -0.13160
C259        C  0.13299135  0.46071857  0.12063063     0.24850
C260        C  0.12258545  0.44747985  0.16180924    -0.23260
C261        C  0.08664989  0.44672984  0.17515898     0.19760
C262        C  0.06144250  0.45932522  0.14796376     0.24790
C263        C  0.07180059  0.47222740  0.10636810    -0.23200
C264        C  0.10762217  0.47272040  0.09259124     0.19700
F265        F  0.11796595  0.48483118  0.05203156    -0.13160
F266        F  0.16754758  0.46143920  0.10680505    -0.15520
F267        F  0.02685440  0.45863567  0.16163824    -0.15520
F268        F  0.07613657  0.43412620  0.21500733    -0.13160
C269        C  0.13842987  0.55180954  0.93961448     0.24850
C270        C  0.13021456  0.56454015  0.89670458    -0.23260
C271        C  0.09477627  0.56606804  0.88091233     0.19760
C272        C  0.06800130  0.55459633  0.90712359     0.24790
C273        C  0.07622121  0.54204143  0.95012931    -0.23200
C274        C  0.11146610  0.54091884  0.96659414     0.19700
F275        F  0.11975301  0.52907616  0.00846118    -0.13160
F276        F  0.17241938  0.55038730  0.95593400    -0.15520
F277        F  0.03400944  0.55578508  0.89071566    -0.15520
F278        F  0.08627732  0.57809391  0.83931404    -0.13160
C279        C  0.38072730  0.56703157  0.61703165     0.24850
C280        C  0.36941049  0.55815171  0.66270859    -0.23260
C281        C  0.38344766  0.53665437  0.67942465     0.19760
C282        C  0.40878463  0.52452842  0.65151619     0.24790
C283        C  0.42062205  0.53360528  0.60605166    -0.23200
C284        C  0.40595773  0.55497505  0.58909376     0.19700
F285        F  0.41580314  0.56437985  0.54521611    -0.13160
F286        F  0.36671779  0.58717813  0.59850780    -0.15520
F287        F  0.42188929  0.50400961  0.66950884    -0.15520
F288        F  0.37354266  0.52765980  0.72362671    -0.13160
C289        C  0.56242972  0.44921164  0.40378147     0.24850
C290        C  0.57199513  0.46593319  0.43940861    -0.23260
C291        C  0.60786457  0.47142277  0.44672360     0.19760
C292        C  0.63400801  0.46025348  0.41863639     0.24790
C293        C  0.62453160  0.44327669  0.38321309    -0.23200
C294        C  0.58851506  0.43783350  0.37602298     0.19700
F295        F  0.57851976  0.42197519  0.34120015    -0.13160
F296        F  0.52780796  0.44406828  0.39562002    -0.15520
F297        F  0.66860637  0.46547150  0.42713850    -0.15520
F298        F  0.61752129  0.48746261  0.48135315    -0.13160
C299        C  0.89911931  0.45339099  0.07349614     0.24850
C300        C  0.91688237  0.47227138  0.09654313    -0.23260
C301        C  0.90633474  0.47901532  0.14438022     0.19760
C302        C  0.87904670  0.46704358  0.16859632     0.24790
C303        C  0.86176651  0.44802058  0.14570667    -0.23200
C304        C  0.87195694  0.44141928  0.09783418     0.19700
F305        F  0.85496026  0.42372275  0.07385071    -0.13160
F306        F  0.90752133  0.44663074  0.02693404    -0.15520
F307        F  0.87044393  0.47358456  0.21521334    -0.15520
F308        F  0.92285650  0.49689631  0.16840999    -0.13160
C309        C  0.88989586  0.57743053  0.91759274     0.24850
C310        C  0.86952563  0.56485641  0.88273748    -0.23260
C311        C  0.87552347  0.54050140  0.87758382     0.19760
C312        C  0.90105900  0.52908790  0.90633069     0.24790
C313        C  0.92165095  0.54170840  0.94070111    -0.23200
C314        C  0.91570349  0.56602143  0.94601966     0.19700
F315        F  0.93518736  0.57895653  0.97831154    -0.13160
F316        F  0.88450534  0.60074279  0.92526610    -0.15520
F317        F  0.90522288  0.50550617  0.90073895    -0.15520
F318        F  0.85737968  0.52759129  0.84384580    -0.13160
C319        C  0.59502037  0.56900668  0.64146785     0.24850
C320        C  0.62890004  0.55899759  0.64819292    -0.23260
C321        C  0.63534885  0.53620314  0.62965903     0.19760
C322        C  0.60850493  0.52376782  0.60518991     0.24790
C323        C  0.57511053  0.53407263  0.59786623    -0.23200
C324        C  0.56856482  0.55673803  0.61605878     0.19700
F325        F  0.53610539  0.56673616  0.61040436    -0.13160
F326        F  0.58698459  0.59039508  0.66070398    -0.15520
F327        F  0.61546609  0.50195845  0.58718223    -0.15520
F328        F  0.66790810  0.52620407  0.63362364    -0.13160
C329        C  0.22521136  0.76621352  0.78653477     0.24850
C330        C  0.24683369  0.77822783  0.75240115    -0.23260
C331        C  0.26888675  0.76465686  0.72141850     0.19760
C332        C  0.26948702  0.74009324  0.72474071     0.24790
C333        C  0.24795382  0.72817743  0.75892975    -0.23200
C334        C  0.22575287  0.74164992  0.78967671     0.19700
F335        F  0.20511921  0.73126524  0.82427304    -0.13160
F336        F  0.20395771  0.77802061  0.81830718    -0.15520
F337        F  0.29060373  0.72807792  0.69307195    -0.15520
F338        F  0.28947085  0.77485825  0.68658013    -0.13160
C339        C  0.42345989  0.95122484  0.60016027     0.24850
C340        C  0.41597793  0.96575877  0.55977861    -0.23260
C341        C  0.38068072  0.96911439  0.54490516     0.19760
C342        C  0.35308281  0.95804004  0.57037813     0.24790
C343        C  0.36062905  0.94312451  0.61038394    -0.23200
C344        C  0.39604777  0.93979026  0.62502925     0.19700
F345        F  0.40404320  0.92595630  0.66428734    -0.13160
F346        F  0.45734016  0.94812725  0.61553180    -0.15520
F347        F  0.31913536  0.96133604  0.55514360    -0.15520
F348        F  0.37302840  0.98313843  0.50580938    -0.13160
C349        C  0.71804075  0.76490984  0.77347988     0.24850
C350        C  0.74544799  0.77812104  0.75212068    -0.23260
C351        C  0.77421145  0.76643400  0.73018075     0.19760
C352        C  0.77558161  0.74184773  0.72967188     0.24790
C353        C  0.74819836  0.72863741  0.75104601    -0.23200
C354        C  0.71940921  0.74031235  0.77295363     0.19700
F355        F  0.69322265  0.72788991  0.79521854    -0.13160
F356        F  0.69056162  0.77584746  0.79624220    -0.15520
F357        F  0.80306246  0.73091044  0.70691694    -0.15520
F358        F  0.80038839  0.77883699  0.70785074    -0.13160
C359        C  0.58818662  0.93810450  0.63279425     0.24850
C360        C  0.62428201  0.94197577  0.62303508    -0.23260
C361        C  0.63397204  0.95742994  0.58491126     0.19760
C362        C  0.60785179  0.96869617  0.55677100     0.24790
C363        C  0.57185940  0.96492348  0.56697620    -0.23200
C364        C  0.56219089  0.94965918  0.60516037     0.19700
F365        F  0.52755288  0.94602913  0.61580741    -0.13160
F366        F  0.57810413  0.92368799  0.67008376    -0.15520
F367        F  0.61760895  0.98329085  0.51960547    -0.15520
F368        F  0.66865396  0.96112377  0.57412641    -0.13160
C369        C  0.22039792  0.24007451  0.28036702     0.24850
C370        C  0.24643549  0.22915219  0.25141462    -0.23260
C371        C  0.27120165  0.24294895  0.22597457     0.19760
C372        C  0.26998389  0.26749215  0.22957553     0.24790
C373        C  0.24387771  0.27843492  0.25847086    -0.23200
C374        C  0.21908085  0.26460744  0.28382256     0.19700
F375        F  0.19427444  0.27487019  0.31298148    -0.13160
F376        F  0.19676455  0.22692408  0.30604106    -0.15520
F377        F  0.29366910  0.28061720  0.20393062    -0.15520
F378        F  0.29601701  0.23264103  0.19689329    -0.13160
C379        C  0.42437912  0.05906161  0.39727714     0.24850
C380        C  0.42139462  0.03467175  0.40357624    -0.23260
C381        C  0.39266838  0.02277184  0.38210110     0.19760
C382        C  0.36675050  0.03517087  0.35575577     0.24790
C383        C  0.36960108  0.05975600  0.34903914    -0.23200
C384        C  0.39919853  0.07142021  0.36970955     0.19700
F385        F  0.40465380  0.09473098  0.36246540    -0.13160
F386        F  0.45239217  0.07091163  0.41669838    -0.15520
F387        F  0.33843471  0.02300859  0.33838002    -0.15520
F388        F  0.38892864  0.99919783  0.38823642    -0.13160
C389        C  0.90490345  0.95015965  0.92768393     0.24850
C390        C  0.91676101  0.97230667  0.91109106    -0.23260
C391        C  0.90082460  0.98204928  0.86867479     0.19760
C392        C  0.87427879  0.96982792  0.84321468     0.24790
C393        C  0.86287681  0.94759412  0.85950794    -0.23200
C394        C  0.87828536  0.93803274  0.90231066     0.19700
F395        F  0.86710083  0.91709554  0.92055303    -0.13160
F396        F  0.91902617  0.94000334  0.96854081    -0.15520
F397        F  0.86061026  0.97954710  0.80162997    -0.15520
F398        F  0.91093514  0.00340733  0.85134660    -0.13160
C399        C  0.11049835  0.03253103  0.05970637     0.24850
C400        C  0.07602446  0.04173217  0.05979563    -0.23260
C401        C  0.06884143  0.06250835  0.08572903     0.19760
C402        C  0.09583953  0.07393101  0.11181462     0.24790
C403        C  0.13068966  0.06491822  0.11159932    -0.23200
C404        C  0.13772531  0.04410488  0.08505535     0.19700
F405        F  0.17110141  0.03528173  0.08231575    -0.13160
F406        F  0.11792707  0.01261791  0.03401316    -0.15520
F407        F  0.08749398  0.09334501  0.13855103    -0.15520
F408        F  0.03540112  0.07135141  0.08691032    -0.13160
C409        C  0.12630911  0.97261120  0.85563430     0.25090
C410        C  0.12294355  0.94820277  0.84703575    -0.23260
C411        C  0.09296114  0.93647578  0.86604579     0.19760
C412        C  0.06774573  0.94861906  0.89382734     0.24790
C413        C  0.07120599  0.97285984  0.90209732    -0.23200
C414        C  0.10042911  0.98483038  0.88234508     0.19700
F415        F  0.10466745  0.00823122  0.89057353    -0.13160
F416        F  0.15513379  0.98466855  0.83981022    -0.15520
F417        F  0.03927090  0.93673707  0.91154870    -0.15520
F418        F  0.08721593  0.91333307  0.85683952    -0.13160
C419        C  0.71305114  0.26503345  0.25713128     0.24850
C420        C  0.74425823  0.27839640  0.25198611    -0.23260
C421        C  0.77690964  0.26653551  0.24774601     0.19760
C422        C  0.77826412  0.24194686  0.24832521     0.24790
C423        C  0.74706761  0.22864195  0.25351083    -0.23200
C424        C  0.71446695  0.24045287  0.25804443     0.19700
F425        F  0.68367132  0.22823080  0.26156180    -0.13160
F426        F  0.68087214  0.27565213  0.25961240    -0.15520
F427        F  0.81034378  0.23120503  0.24541191    -0.15520
F428        F  0.80780992  0.27865848  0.24465989    -0.13160
C429        C  0.60132672  0.07108404  0.38408341     0.24850
C430        C  0.63018832  0.05903770  0.36235534    -0.23260
C431        C  0.63042190  0.03415664  0.36493592     0.19760
C432        C  0.60294556  0.02195054  0.38829938     0.24790
C433        C  0.57507110  0.03418636  0.41092541    -0.23200
C434        C  0.57456397  0.05882409  0.40861078     0.19700
F435        F  0.54747813  0.07115610  0.42909954    -0.13160
F436        F  0.59805778  0.09477245  0.38115050    -0.15520
F437        F  0.60435547  0.99810034  0.39036154    -0.15520
F438        F  0.65749789  0.02132096  0.34615843    -0.13160
C439        C  0.89516111  0.05544271  0.04536184     0.24850
C440        C  0.92098987  0.04136216  0.06860922    -0.23260
C441        C  0.92006616  0.03881500  0.12025282     0.19760
C442        C  0.89375105  0.05002290  0.14794388     0.24790
C443        C  0.86823804  0.06410948  0.12456832    -0.23200
C444        C  0.86913888  0.06681060  0.07321030     0.19700
F445        F  0.84413379  0.07993666  0.04989701    -0.13160
F446        F  0.89442488  0.05769330  0.99553432    -0.15520
F447        F  0.89379129  0.04770933  0.19776248    -0.15520
F448        F  0.94515693  0.02599259  0.14411624    -0.13160
loop_ 
_geom_bond_atom_site_label_1 
_geom_bond_atom_site_label_2 
_geom_bond_distance 
_geom_bond_site_symmetry_2 
_ccdc_geom_bond_type 
N1            N2   1.323       .  A
N1            C5   1.344       .  A
N1           Cu9   2.069       .  S
N2            C3   1.345       .  A
N2           Cu8   2.074       .  S
C3            C4   1.382       .  A
C3            H6   1.082       .  S
C4            C5   1.380       .  A
C4          C443   1.470       .  S
C5            H7   1.082       .  S
Cu8          N11   2.074       .  S
Cu9          N19   2.069       .  S
Cu10         N12   2.074       .  S
Cu10         N18   2.074       .  S
N11          N12   1.319       .  A
N11          C15   1.344       .  A
N12          C13   1.342       .  A
C13          C14   1.394       .  A
C13          H16   1.077       .  S
C14          C15   1.394       .  A
C14         C430   1.501       .  S
C15          H17   1.080       .  S
N18          N19   1.321       .  A
N18          C22   1.345       .  A
N19          C20   1.344       .  A
C20          C21   1.385       .  A
C20          H23   1.082       .  S
C21          C22   1.386       .  A
C21         C423   1.482       .  S
C22          H24   1.083       .  S
O25         Cu33   2.005       .  S
O25          C35   1.278   1_556  A
O26         Cu33   2.012   1_455  S
O26          C36   1.278   1_545  A
O27         Cu33   2.013       .  S
O27          C37   1.279   1_545  A
O28         Cu33   2.008   1_455  S
O28          C38   1.277   1_556  A
O29         Cu34   2.005   1_445  S
O29          C38   1.276       .  A
O30         Cu34   2.003   1_556  S
O30          C37   1.277       .  A
O31         Cu34   2.002   1_456  S
O31          C36   1.277       .  A
O32         Cu34   2.008   1_545  S
O32          C35   1.278       .  A
Cu33        Cu34   2.371   1_546  S
C35         C440   1.479       .  S
C36         C413   1.474       .  S
C37         C390   1.489       .  S
C38         C400   1.466       .  S
N39          N40   1.320       .  A
N39          C43   1.342       .  A
N39         Cu47   2.072       .  S
N40          C41   1.345       .  A
N40         Cu46   2.076       .  S
C41          C42   1.391       .  A
C41          H44   1.080       .  S
C42          C43   1.390       .  A
C42         C383   1.494       .  S
C43          H45   1.080       .  S
Cu46         N49   2.076       .  S
Cu47         N57   2.072       .  S
Cu48         N50   2.068       .  S
Cu48         N56   2.068       .  S
N49          N50   1.321       .  A
N49          C53   1.345       .  A
N50          C51   1.343       .  A
C51          C52   1.385       .  A
C51          H54   1.081       .  S
C52          C53   1.387       .  A
C52         C403   1.484       .  S
C53          H55   1.081       .  S
N56          N57   1.322       .  A
N56          C60   1.344       .  A
N57          C58   1.345       .  A
C58          C59   1.381       .  A
C58          H61   1.082       .  S
C59          C60   1.380       .  A
C59         C370   1.468       .  S
C60          H62   1.082       .  S
N63          N64   1.323       .  A
N63          C67   1.344       .  A
N63         Cu71   2.074       .  S
N64          C65   1.345       .  A
N64         Cu70   2.072       .  S
C65          C66   1.383       .  A
C65          H68   1.082       .  S
C66          C67   1.383       .  A
C66         C360   1.474       .  S
C67          H69   1.082       .  S
Cu70         N73   2.072       .  S
Cu71         N81   2.074       .  S
Cu72         N74   2.071       .  S
Cu72         N80   2.071       .  S
N73          N74   1.321       .  A
N73          C77   1.345       .  A
N74          C75   1.343       .  A
C75          C76   1.387       .  A
C75          H78   1.081       .  S
C76          C77   1.387       .  A
C76         C393   1.485       .  S
C77          H79   1.081       .  S
N80          N81   1.322       .  A
N80          C84   1.344       .  A
N81          C82   1.345       .  A
C82          C83   1.383       .  A
C82          H85   1.082       .  S
C83          C84   1.382       .  A
C83         C350   1.473       .  S
C84          H86   1.082       .  S
O87         Cu95   2.010       .  S
O87          C97   1.277       .  A
O88         Cu95   2.011   1_545  S
O88          C98   1.278       .  A
O89         Cu95   2.016   1_545  S
O89          C99   1.279       .  A
O90         Cu95   2.012       .  S
O90         C100   1.277       .  A
O91         Cu96   2.009   1_565  S
O91         C100   1.277       .  A
O92         Cu96   2.002       .  S
O92          C99   1.277       .  A
O93         Cu96   2.004       .  S
O93          C98   1.277       .  A
O94         Cu96   2.009   1_565  S
O94          C97   1.277       .  A
Cu95        Cu96   2.377   1_565  S
C97         C363   1.466       .  S
C98         C380   1.474       .  S
C99         C433   1.478       .  S
C100        C340   1.467       .  S
N101        N102   1.323       .  A
N101        C105   1.343       .  A
N101       Cu109   2.073       .  S
N102        C103   1.346       .  A
N102       Cu108   2.077       .  S
C103        C104   1.384       .  A
C103        H106   1.082       .  S
C104        C105   1.382       .  A
C104        C343   1.475       .  S
C105        H107   1.082       .  S
Cu108       N111   2.077       .  S
Cu109       N119   2.073       .  S
Cu110       N112   2.071       .  S
Cu110       N118   2.071       .  S
N111        N112   1.320       .  A
N111        C115   1.346       .  A
N112        C113   1.342       .  A
C113        C114   1.388       .  A
C113        H116   1.080       .  S
C114        C115   1.391       .  A
C114        C410   1.491       .  S
C115        H117   1.080       .  S
N118        N119   1.318       .  A
N118        C122   1.344       .  A
N119        C120   1.344       .  A
C120        C121   1.393       .  A
C120        H123   1.078       .  S
C121        C122   1.393       .  A
C121        C330   1.499       .  S
C122        H124   1.078       .  S
N125        N126   1.321       .  A
N125        C129   1.345       .  A
N125       Cu133   2.075       .  S
N126        C127   1.344       .  A
N126       Cu132   2.076       .  S
C127        C128   1.389       .  A
C127        H130   1.080       .  S
C128        C129   1.389       .  A
C128        C310   1.491       .  S
C129        H131   1.080       .  S
Cu132       N135   2.075       .  S
Cu133       N143   2.074       .  S
Cu134       N136   2.071       .  S
Cu134       N142   2.071       .  S
N135        N136   1.321       .  A
N135        C139   1.346       .  A
N136        C137   1.343       .  A
C137        C138   1.387       .  A
C137        H140   1.081       .  S
C138        C139   1.388       .  A
C138        C320   1.486       .  S
C139        H141   1.081       .  S
N142        N143   1.322       .  A
N142        C146   1.345       .  A
N143        C144   1.345       .  A
C144        C145   1.383       .  A
C144        H147   1.082       .  S
C145        C146   1.382       .  A
C145        C353   1.473       .  S
C146        H148   1.082       .  S
N149        N150   1.322       .  A
N149        C153   1.343       .  A
N149       Cu157   2.072       .  S
N150        C151   1.345       .  A
N150       Cu156   2.074       .  S
C151        C152   1.386       .  A
C151        H154   1.082       .  S
C152        C153   1.384       .  A
C152        C303   1.481       .  S
C153        H155   1.083       .  S
Cu156       N159   2.074       .  S
Cu157       N167   2.072       .  S
Cu158       N160   2.070       .  S
Cu158       N166   2.070       .  S
N159        N160   1.322       .  A
N159        C163   1.345       .  A
N160        C161   1.344       .  A
C161        C162   1.383       .  A
C161        H164   1.081       .  S
C162        C163   1.384       .  A
C162        C293   1.476       .  S
C163        H165   1.082       .  S
N166        N167   1.321       .  A
N166        C170   1.344       .  A
N167        C168   1.344       .  A
C168        C169   1.387       .  A
C168        H171   1.082       .  S
C169        C170   1.387       .  A
C169        C420   1.485       .  S
C170        H172   1.082       .  S
N173        N174   1.322       .  A
N173        C177   1.343       .  A
N173       Cu181   2.074       .  S
N174        C175   1.346       .  A
N174       Cu180   2.076       .  S
C175        C176   1.387       .  A
C175        H178   1.081       .  S
C176        C177   1.386       .  A
C176        C280   1.484       .  S
C177        H179   1.081       .  S
Cu180       N183   2.076       .  S
Cu181       N191   2.074       .  S
Cu182       N184   2.072       .  S
Cu182       N190   2.072       .  S
N183        N184   1.323       .  A
N183        C187   1.346       .  A
N184        C185   1.344       .  A
C185        C186   1.381       .  A
C185        H188   1.082       .  S
C186        C187   1.383       .  A
C186        C270   1.473       .  S
C187        H189   1.082       .  S
N190        N191   1.319       .  A
N190        C194   1.344       .  A
N191        C192   1.344       .  A
C192        C193   1.391       .  A
C192        H195   1.080       .  S
C193        C194   1.390       .  A
C193        C333   1.493       .  S
C194        H196   1.080       .  S
O197       Cu205   2.003       .  S
O197        C207   1.277       .  A
O198       Cu205   2.007   1_454  S
O198        C208   1.277       .  A
O199       Cu205   2.007   1_554  S
O199        C209   1.278       .  A
O200       Cu205   2.005   1_455  S
O200        C210   1.276       .  A
O201       Cu206   2.013   1_455  S
O201        C210   1.277   1_554  A
O202       Cu206   2.010       .  S
O202        C209   1.278       .  A
O203       Cu206   2.011   1_455  S
O203        C208   1.277       .  A
O204       Cu206   2.015       .  S
O204        C207   1.279   1_554  A
Cu205      Cu206   2.372   1_556  S
C207        C313   1.485       .  S
C208        C263   1.467       .  S
C209        C300   1.487       .  S
C210        C273   1.466       .  S
O211       Cu219   2.010       .  S
O211        C221   1.277       .  A
O212       Cu219   1.997       .  S
O212        C222   1.277       .  A
O213       Cu219   2.007       .  S
O213        C223   1.277       .  A
O214       Cu219   2.008       .  S
O214        C224   1.277       .  A
O215       Cu220   2.009       .  S
O215        C224   1.277       .  A
O216       Cu220   2.011       .  S
O216        C223   1.277       .  A
O217       Cu220   2.021       .  S
O217        C222   1.280       .  A
O218       Cu220   2.009       .  S
O218        C221   1.277       .  A
Cu219      Cu220   2.375       .  S
C221        C290   1.466       .  S
C222        C283   1.490       .  S
C223        C323   1.470       .  S
C224        C253   1.467       .  S
N225        N226   1.323       .  A
N225        C229   1.345       .  A
N225       Cu233   2.075       .  S
N226        C227   1.345       .  A
N226       Cu232   2.074       .  S
C227        C228   1.381       .  A
C227        H230   1.082       .  S
C228        C229   1.381       .  A
C228        C260   1.471       .  S
C229        H231   1.082       .  S
Cu232       N235   2.074       .  S
Cu233       N243   2.075       .  S
Cu234       N236   2.069       .  S
Cu234       N242   2.068       .  S
N235        N236   1.321       .  A
N235        C239   1.345       .  A
N236        C237   1.343       .  A
C237        C238   1.384       .  A
C237        H240   1.081       .  S
C238        C239   1.386       .  A
C238        C250   1.480       .  S
C239        H241   1.082       .  S
N242        N243   1.322       .  A
N242        C246   1.344       .  A
N243        C244   1.346       .  A
C244        C245   1.382       .  A
C244        H247   1.082       .  S
C245        C246   1.380       .  A
C245        C373   1.470       .  S
C246        H248   1.082       .  S
C249        C250   1.408       .  A
C249        C254   1.397       .  A
C249        F256   1.357       .  S
C250        C251   1.409       .  A
C251        C252   1.400       .  A
C251        F258   1.358       .  S
C252        C253   1.403       .  A
C252        F257   1.358       .  S
C253        C254   1.400       .  A
C254        F255   1.356       .  S
C259        C260   1.404       .  A
C259        C264   1.399       .  A
C259        F266   1.358       .  S
C260        C261   1.405       .  A
C261        C262   1.399       .  A
C261        F268   1.358       .  S
C262        C263   1.403       .  A
C262        F267   1.358       .  S
C263        C264   1.403       .  A
C264        F265   1.357       .  S
C269        C270   1.405       .  A
C269        C274   1.399       .  A
C269        F276   1.358       .  S
C270        C271   1.405       .  A
C271        C272   1.399       .  A
C271        F278   1.358       .  S
C272        C273   1.402       .  A
C272        F277   1.358       .  S
C273        C274   1.403       .  A
C274        F275   1.357   1_556  S
C279        C280   1.406       .  A
C279        C284   1.397       .  A
C279        F286   1.358       .  S
C280        C281   1.407       .  A
C281        C282   1.401       .  A
C281        F288   1.357       .  S
C282        C283   1.411       .  A
C282        F287   1.358       .  S
C283        C284   1.412       .  A
C284        F285   1.358       .  S
C289        C290   1.401       .  A
C289        C294   1.398       .  A
C289        F296   1.356       .  S
C290        C291   1.402       .  A
C291        C292   1.399       .  A
C291        F298   1.358       .  S
C292        C293   1.407       .  A
C292        F297   1.358       .  S
C293        C294   1.407       .  A
C294        F295   1.358       .  S
C299        C300   1.410       .  A
C299        C304   1.398       .  A
C299        F306   1.358       .  S
C300        C301   1.411       .  A
C301        C302   1.400       .  A
C301        F308   1.358       .  S
C302        C303   1.406       .  A
C302        F307   1.357       .  S
C303        C304   1.405       .  A
C304        F305   1.358       .  S
C309        C310   1.411       .  A
C309        C314   1.400       .  A
C309        F316   1.357       .  S
C310        C311   1.410       .  A
C311        C312   1.398       .  A
C311        F318   1.357       .  S
C312        C313   1.408       .  A
C312        F317   1.358       .  S
C313        C314   1.407       .  A
C314        F315   1.358       .  S
C319        C320   1.410       .  A
C319        C324   1.398       .  A
C319        F326   1.357       .  S
C320        C321   1.411       .  A
C321        C322   1.401       .  A
C321        F328   1.357       .  S
C322        C323   1.403       .  A
C322        F327   1.358       .  S
C323        C324   1.401       .  A
C324        F325   1.358       .  S
C329        C330   1.412       .  A
C329        C334   1.399       .  A
C329        F336   1.355       .  S
C330        C331   1.412       .  A
C331        C332   1.400       .  A
C331        F338   1.355       .  S
C332        C333   1.409       .  A
C332        F337   1.356       .  S
C333        C334   1.409       .  A
C334        F335   1.356       .  S
C339        C340   1.401       .  A
C339        C344   1.397       .  A
C339        F346   1.355       .  S
C340        C341   1.403       .  A
C341        C342   1.401       .  A
C341        F348   1.358       .  S
C342        C343   1.406       .  A
C342        F347   1.358       .  S
C343        C344   1.406       .  A
C344        F345   1.358       .  S
C349        C350   1.405       .  A
C349        C354   1.399       .  A
C349        F356   1.358       .  S
C350        C351   1.405       .  A
C351        C352   1.399       .  A
C351        F358   1.358       .  S
C352        C353   1.404       .  A
C352        F357   1.358       .  S
C353        C354   1.405       .  A
C354        F355   1.358       .  S
C359        C360   1.405       .  A
C359        C364   1.397       .  A
C359        F366   1.358       .  S
C360        C361   1.407       .  A
C361        C362   1.400       .  A
C361        F368   1.358       .  S
C362        C363   1.403       .  A
C362        F367   1.358       .  S
C363        C364   1.401       .  A
C364        F365   1.355       .  S
C369        C370   1.403       .  A
C369        C374   1.399       .  A
C369        F376   1.358       .  S
C370        C371   1.403       .  A
C371        C372   1.399       .  A
C371        F378   1.358       .  S
C372        C373   1.405       .  A
C372        F377   1.358       .  S
C373        C374   1.404       .  A
C374        F375   1.358       .  S
C379        C380   1.402       .  A
C379        C384   1.397       .  A
C379        F386   1.358       .  S
C380        C381   1.403       .  A
C381        C382   1.400       .  A
C381        F388   1.358   1_545  S
C382        C383   1.414       .  A
C382        F387   1.356       .  S
C383        C384   1.413       .  A
C384        F385   1.356       .  S
C389        C390   1.411       .  A
C389        C394   1.398       .  A
C389        F396   1.358       .  S
C390        C391   1.411       .  A
C391        C392   1.399       .  A
C391        F398   1.358   1_565  S
C392        C393   1.407       .  A
C392        F397   1.357       .  S
C393        C394   1.407       .  A
C394        F395   1.357       .  S
C399        C400   1.401       .  A
C399        C404   1.399       .  A
C399        F406   1.358       .  S
C400        C401   1.401       .  A
C401        C402   1.398       .  A
C401        F408   1.358       .  S
C402        C403   1.411       .  A
C402        F407   1.357       .  S
C403        C404   1.410       .  A
C404        F405   1.357       .  S
C409        C410   1.413       .  A
C409        C414   1.401       .  A
C409        F416   1.356       .  S
C410        C411   1.412       .  A
C411        C412   1.397       .  A
C411        F418   1.356       .  S
C412        C413   1.402       .  A
C412        F417   1.358       .  S
C413        C414   1.403       .  A
C414        F415   1.358   1_565  S
C419        C420   1.409       .  A
C419        C424   1.399       .  A
C419        F426   1.357       .  S
C420        C421   1.409       .  A
C421        C422   1.399       .  A
C421        F428   1.357       .  S
C422        C423   1.407       .  A
C422        F427   1.358       .  S
C423        C424   1.406       .  A
C424        F425   1.358       .  S
C429        C430   1.415       .  A
C429        C434   1.397       .  A
C429        F436   1.355       .  S
C430        C431   1.416       .  A
C431        C432   1.401       .  A
C431        F438   1.355       .  S
C432        C433   1.403       .  A
C432        F437   1.358   1_545  S
C433        C434   1.402       .  A
C434        F435   1.358       .  S
C439        C440   1.409       .  A
C439        C444   1.398       .  A
C439        F446   1.358   1_554  S
C440        C441   1.409       .  A
C441        C442   1.399       .  A
C441        F448   1.358       .  S
C442        C443   1.403       .  A
C442        F447   1.358       .  S
C443        C444   1.402       .  A
C444        F445   1.358       .  S
