geometry optimzed in LAMMPS
_audit_creation_date              2020-11-30 
_audit_creation_method            'lammps2cif' 
_symmetry_space_group_name_H-M    'P1' 
_symmetry_Int_Tables_number       1 
_symmetry_cell_setting            triclinic 
loop_ 
_symmetry_equiv_pos_as_xyz 
  x,y,z 
_cell_length_a                    33.286835951074515 
_cell_length_b                    33.37961059744546 
_cell_length_c                    33.33196843389018 
_cell_angle_alpha                 90.05950431006258 
_cell_angle_beta                  89.99663062399551 
_cell_angle_gamma                 89.84256513648023 
loop_ 
_atom_site_label 
_atom_site_type_symbol 
_atom_site_fract_x 
_atom_site_fract_y 
_atom_site_fract_z 
_atom_site_charge 
C1          C  0.01838840  0.27462180  0.22966494     0.03160
C2          C  0.04715064  0.29264875  0.25435255    -0.12990
C3          C  0.05733103  0.27543313  0.29098430     0.00660
C4          C  0.04934244  0.23512226  0.29722345    -0.11520
C5          C  0.01897591  0.21641906  0.27509234     0.03150
C6          C  0.00304723  0.23628515  0.24069582    -0.10940
H7          H  0.05495726  0.32375387  0.24912895     0.08750
H8          H  0.05832828  0.22214053  0.32572272     0.06280
H9          H  0.97824676  0.22329531  0.22425659     0.06120
O10         O  0.00526943  0.38292383  0.44213998    -0.80100
O11         O  0.99077150  0.60942275  0.42194388    -0.81650
O12         O  0.92782160  0.49078922  0.38386554    -0.78670
O13         O  0.06699398  0.49957605  0.38095971    -0.77060
O14         O  0.11420772  0.50034305  0.43062933    -0.78850
O15         O  0.88306099  0.49436742  0.43585196    -0.79780
O16         O  0.99082926  0.55699993  0.37716381    -0.81110
O17         O  0.00711965  0.42704661  0.38916666    -0.81400
Eu18       Eu  0.99776389  0.49504511  0.41413549     2.39200
O19         O  0.03787651  0.53976014  0.45126629    -0.88910
O20         O  0.95739365  0.45680970  0.45878822    -0.92510
C21         C  0.00990762  0.39190973  0.40489310     1.02180
C22         C  0.98811306  0.59422517  0.38665999     1.02000
C23         C  0.89136386  0.49150339  0.39823781     1.01940
C24         C  0.10423124  0.50025296  0.39349753     0.99800
H25         H  0.93901815  0.55335979  0.43643022     0.29550
O26         O  0.95781283  0.53902312  0.45320845    -1.01290
H27         H  0.05663566  0.44136949  0.44437841     0.29580
O28         O  0.03853539  0.45866880  0.45899043    -1.03840
O29         O  0.00095291  0.62309164  0.54989118    -0.81060
O30         O  0.99751790  0.39814754  0.57268269    -0.80600
O31         O  0.88117356  0.56117416  0.49790716    -0.79040
O32         O  0.11331801  0.56677779  0.48533473    -0.82380
O33         O  0.11372677  0.43776919  0.50118270    -0.80230
O34         O  0.88410578  0.44124135  0.51211172    -0.78880
O35         O  0.93676167  0.51616612  0.61258524    -0.80400
O36         O  0.07401591  0.50954725  0.60774209    -0.82330
O37         O  0.88842210  0.51076653  0.56447135    -0.79060
O38         O  0.11890985  0.50608761  0.55597401    -0.81740
O39         O  0.92550916  0.61304354  0.49276772    -0.77470
O40         O  0.92885325  0.38983180  0.51246854    -0.77510
O41         O  0.06648614  0.38919874  0.50906465    -0.77150
O42         O  0.06702447  0.61702577  0.48190093    -0.80650
O43         O  0.00513178  0.57806073  0.60183096    -0.80070
O44         O  0.99913706  0.45033859  0.61771901    -0.78400
Eu45       Eu  0.99798875  0.58457902  0.48916608     2.39770
Eu46       Eu  0.99849950  0.42095734  0.50386457     2.39570
Eu47       Eu  0.92032768  0.50166309  0.49892125     2.38400
Eu48       Eu  0.07969674  0.50267668  0.49443630     2.39880
Eu49       Eu  0.00368076  0.51028430  0.57804898     2.39790
O50         O  0.04128949  0.46485881  0.53953784    -0.92820
O51         O  0.96077762  0.54649245  0.53499566    -0.91710
C52         C  0.00366658  0.61344073  0.58699495     1.02350
C53         C  0.99688666  0.41319935  0.60820728     1.01070
C54         C  0.88901462  0.59839666  0.49549105     1.00460
C55         C  0.10411359  0.60400005  0.48209396     1.02480
C56         C  0.10355363  0.40098975  0.50715054     1.01390
C57         C  0.89231139  0.40408992  0.51535155     1.00240
C58         C  0.89942039  0.51527149  0.60126167     1.00300
C59         C  0.11048540  0.50792498  0.59351988     1.02910
H60         H  0.94436124  0.45236311  0.56109467     0.30280
O61         O  0.96145379  0.46630046  0.54243652    -1.04980
H62         H  0.05948241  0.56588775  0.54639394     0.32330
O63         O  0.04154971  0.54807472  0.53226701    -1.07540
C64         C  0.98375411  0.73266884  0.78568545     0.03160
C65         C  0.98463162  0.70560912  0.75387195    -0.12990
C66         C  0.98466605  0.71907563  0.71486569     0.00660
C67         C  0.98464639  0.75920817  0.70600873    -0.11520
C68         C  0.98345557  0.78780259  0.73616537     0.03150
C69         C  0.98346819  0.77484318  0.77720172    -0.10940
H70         H  0.98555955  0.67356325  0.75946835     0.08750
H71         H  0.98587060  0.76829794  0.67470823     0.06280
H72         H  0.98297641  0.79650572  0.80136309     0.06120
C73         C  0.00993092  0.27187257  0.78382648     0.03160
C74         C  0.99540737  0.29795512  0.75470554    -0.12990
C75         C  0.98988713  0.28527160  0.71569835     0.00660
C76         C  0.99489417  0.24558347  0.70541719    -0.11520
C77         C  0.00907025  0.21802445  0.73350662     0.03150
C78         C  0.01637998  0.23084205  0.77371156    -0.10940
H79         H  0.99157024  0.32955175  0.76165925     0.08750
H80         H  0.99046804  0.23665164  0.67439809     0.06280
H81         H  0.02765754  0.21000287  0.79589184     0.06120
C82         C  0.98265116  0.73727168  0.21231203     0.03160
C83         C  0.96066298  0.71186318  0.23690663    -0.12990
C84         C  0.95843385  0.71864536  0.27765284     0.00660
C85         C  0.97030166  0.75491012  0.29380858    -0.11520
C86         C  0.98803197  0.78422113  0.27008029     0.03150
C87         C  0.99652053  0.77472898  0.22873546    -0.10940
H88         H  0.95196500  0.68248081  0.22582950     0.08750
H89         H  0.96914822  0.75903416  0.32608811     0.06280
H90         H  0.01366333  0.79522758  0.21040134     0.06120
O91         O  0.99593306  0.11463338  0.43581235    -0.80100
O92         O  0.00063815  0.88732153  0.43665660    -0.81650
O93         O  0.05918340  0.00533799  0.38907537    -0.78670
O94         O  0.93035590  0.99869564  0.39392152    -0.77060
O95         O  0.88144636  0.00190775  0.44151073    -0.78850
O96         O  0.11088306  0.00253377  0.43376069    -0.79780
O97         O  0.99665357  0.93692584  0.38960664    -0.81110
O98         O  0.99491685  0.06396631  0.38981402    -0.81400
Eu99       Eu  0.99600071  0.00039248  0.42562355     2.39200
O100        O  0.95610703  0.96128932  0.46810284    -0.88910
O101        O  0.03732350  0.04085703  0.46462617    -0.92510
C102        C  0.99489231  0.10138310  0.39910362     1.02180
C103        C  0.99918747  0.89979821  0.39947333     1.02000
C104        C  0.09682157  0.00506159  0.39743932     1.01940
C105        C  0.89330143  0.00046591  0.40421113     0.99800
H106        H  0.05565754  0.94284198  0.44611428     0.29550
O107        O  0.03931769  0.95945819  0.46339128    -1.01290
H108        H  0.94016124  0.05805249  0.44926227     0.29580
O109        O  0.95685300  0.04206402  0.46672374    -1.03840
O110        O  0.99722521  0.88990146  0.57650098    -0.81060
O111        O  0.00429755  0.11611889  0.57382766    -0.80600
O112        O  0.11110198  0.93512186  0.50678827    -0.79040
O113        O  0.88417540  0.93810272  0.50980995    -0.82380
O114        O  0.88413200  0.06807783  0.50219598    -0.80230
O115        O  0.11101686  0.06540041  0.49274844    -0.78880
O116        O  0.06713793  0.99628148  0.61738530    -0.80400
O117        O  0.94042311  0.00988802  0.62402157    -0.82330
O118        O  0.11587201  0.99715250  0.56935353    -0.79060
O119        O  0.88747435  0.01077343  0.58060324    -0.81740
O120        O  0.06294938  0.88626127  0.50957289    -0.77470
O121        O  0.06318234  0.11499532  0.49143618    -0.77510
O122        O  0.93363114  0.11590002  0.50150556    -0.77150
O123        O  0.93468700  0.89137076  0.50455343    -0.80650
O124        O  0.99945776  0.94091476  0.62239805    -0.80070
O125        O  0.00765312  0.06591998  0.62052576    -0.78400
Eu126      Eu  0.99928047  0.92027960  0.50620699     2.39770
Eu127      Eu  0.99903074  0.08401720  0.50488257     2.39570
Eu128      Eu  0.08065603  0.00084332  0.50270247     2.38400
Eu129      Eu  0.91600038  0.00328920  0.50939543     2.39880
Eu130      Eu  0.00192981  0.00325961  0.58525340     2.39790
O131        O  0.95889916  0.04461485  0.54755190    -0.92820
O132        O  0.04091484  0.96141716  0.54473447    -0.91710
C133        C  0.99771392  0.90362603  0.61324959     1.02350
C134        C  0.00702228  0.10295977  0.61058666     1.01070
C135        C  0.09944514  0.89850875  0.50934061     1.00460
C136        C  0.89790909  0.90221330  0.50657324     1.02480
C137        C  0.89687983  0.10427486  0.49979697     1.01390
C138        C  0.09926980  0.10178268  0.48794357     1.00240
C139        C  0.10412576  0.99435336  0.60643752     1.00300
C140        C  0.90263210  0.01210414  0.61682437     1.02910
H141        H  0.06042231  0.06019212  0.56005546     0.30280
O142        O  0.04253445  0.04382249  0.54421382    -1.04980
H143        H  0.94280570  0.94615805  0.56564352     0.32330
O144        O  0.95903037  0.96202990  0.54768866    -1.07540
C145        C  0.22861904  0.28204332  0.49862891     0.03160
C146        C  0.20657435  0.25327165  0.47751848    -0.12990
C147        C  0.22266560  0.21587904  0.46947925     0.00660
C148        C  0.26325484  0.20931921  0.47416458    -0.11520
C149        C  0.28685719  0.23638918  0.49581610     0.03150
C150        C  0.26952322  0.27351512  0.50827346    -0.10940
H151        H  0.17476584  0.25798135  0.47204110     0.08750
H152        H  0.27524212  0.18020573  0.46584915     0.06280
H153        H  0.28690525  0.29447238  0.52574662     0.06120
C154        C  0.77126488  0.28566418  0.52122330     0.03160
C155        C  0.79234145  0.26464839  0.49173327    -0.12990
C156        C  0.78072425  0.22632201  0.48094548     0.00660
C157        C  0.74290815  0.21250220  0.49127136    -0.11520
C158        C  0.71984852  0.23258047  0.51992151     0.03150
C159        C  0.73402002  0.26989641  0.53550302    -0.10940
H160        H  0.82211684  0.27466694  0.48304142     0.08750
H161        H  0.73449961  0.18236592  0.48232942     0.06280
H162        H  0.71761002  0.28515865  0.55903929     0.06120
C163        C  0.72555882  0.77135734  0.50047464     0.03160
C164        C  0.72752130  0.72829385  0.49668886    -0.12990
C165        C  0.76613512  0.70938433  0.49342392     0.00660
C166        C  0.79934749  0.73310716  0.48626808    -0.11520
C167        C  0.79827821  0.77211875  0.49837477     0.03150
C168        C  0.76217606  0.78993823  0.50956533    -0.10940
H169        H  0.70131996  0.70963283  0.49612933     0.08750
H170        H  0.82756636  0.71998431  0.47643230     0.06280
H171        H  0.76286611  0.82088295  0.51954431     0.06120
C172        C  0.28338243  0.77305961  0.49760393     0.03160
C173        C  0.26612263  0.73794805  0.47982387    -0.12990
C174        C  0.22653219  0.72579351  0.49142875     0.00660
C175        C  0.20557361  0.74915941  0.51910963    -0.11520
C176        C  0.22167566  0.78458297  0.53381465     0.03150
C177        C  0.26192722  0.79311533  0.52747489    -0.10940
H178        H  0.28213727  0.72175908  0.45663982     0.08750
H179        H  0.17419541  0.74256072  0.52483629     0.06280
H180        H  0.27366004  0.82102150  0.53944878     0.06120
C181        C  0.72418058  0.02891499  0.22793007     0.03160
C182        C  0.75595833  0.00812343  0.24745675    -0.12990
C183        C  0.76994998  0.02195769  0.28528808     0.00660
C184        C  0.74984660  0.05347670  0.30432736    -0.11520
C185        C  0.71568658  0.07081066  0.28747113     0.03150
C186        C  0.70870780  0.06376108  0.24650869    -0.10940
H187        H  0.76780131  0.98058529  0.23502110     0.08750
H188        H  0.75765749  0.05996483  0.33510047     0.06280
H189        H  0.68386958  0.07929527  0.23226469     0.06120
O190        O  0.38439485  0.07417086  0.50286082    -0.80100
O191        O  0.61190909  0.07544602  0.51274822    -0.81650
O192        O  0.49676361  0.11816560  0.56730759    -0.78670
O193        O  0.50151657  0.11948403  0.43762978    -0.77060
O194        O  0.49348706  0.07534049  0.38562185    -0.78850
O195        O  0.50298350  0.06982923  0.61530033    -0.79780
O196        O  0.56072846  0.12065150  0.50980228    -0.81110
O197        O  0.43534987  0.11992115  0.50592152    -0.81400
Eu198      Eu  0.49805099  0.08413974  0.50265639     2.39200
O199        O  0.53777159  0.04479924  0.46114398    -0.88910
O200        O  0.45905218  0.04264755  0.54356686    -0.92510
C201        C  0.39806611  0.11082085  0.50462031     1.02180
C202        C  0.59805768  0.11214278  0.51403621     1.02000
C203        C  0.50021767  0.10721595  0.60404892     1.01940
C204        C  0.49838806  0.11136965  0.39986110     0.99800
H205        H  0.55603996  0.05957896  0.56124415     0.29550
O206        O  0.53970697  0.04359993  0.54349160    -1.01290
H207        H  0.43786874  0.06290072  0.44478788     0.29580
O208        O  0.45509664  0.04588581  0.46073368    -1.03840
O209        O  0.61543743  0.93882205  0.49381829    -0.81060
O210        O  0.38733761  0.93359057  0.50142985    -0.80600
O211        O  0.56255289  0.99075821  0.61668544    -0.79040
O212        O  0.56419207  0.02605716  0.39439929    -0.82380
O213        O  0.42997481  0.98884404  0.38984728    -0.80230
O214        O  0.43617714  0.01200141  0.61613445    -0.78880
O215        O  0.50068650  0.88688708  0.55925144    -0.80400
O216        O  0.50122111  0.89219866  0.43330903    -0.82330
O217        O  0.49548494  0.93040424  0.61186356    -0.79060
O218        O  0.50326841  0.93893009  0.38333478    -0.81740
O219        O  0.60890033  0.99046358  0.56610506    -0.77470
O220        O  0.38579524  0.01442766  0.57024608    -0.77510
O221        O  0.38439145  0.99173523  0.44072204    -0.77150
O222        O  0.61587544  0.02253039  0.43935953    -0.80650
O223        O  0.56704130  0.89095118  0.49521803    -0.80070
O224        O  0.43901638  0.88897737  0.49324588    -0.78400
Eu225      Eu  0.58150844  0.00618350  0.50079261     2.39770
Eu226      Eu  0.41628644  0.00438459  0.50379635     2.39570
Eu227      Eu  0.49946638  0.00090476  0.58317059     2.38400
Eu228      Eu  0.49694629  0.00687204  0.41779685     2.39880
Eu229      Eu  0.50175727  0.92536845  0.49784411     2.39790
O230        O  0.45958938  0.96777815  0.46197324    -0.92820
O231        O  0.54161095  0.96384107  0.54024477    -0.91710
C232        C  0.60421554  0.90151685  0.49326502     1.02350
C233        C  0.40152006  0.89735265  0.49636102     1.01070
C234        C  0.59827682  0.98652173  0.60301618     1.00460
C235        C  0.60143218  0.03003436  0.40445806     1.02480
C236        C  0.39422259  0.98381657  0.40453505     1.01390
C237        C  0.39961561  0.01839494  0.60628175     1.00240
C238        C  0.49792879  0.89434237  0.59686568     1.00300
C239        C  0.50239176  0.90194576  0.39610065     1.02910
H240        H  0.44189893  0.94384671  0.55763881     0.30280
O241        O  0.45830489  0.96152841  0.54166356    -1.04980
H242        H  0.55863379  0.95143595  0.43913805     0.32330
O243        O  0.54148555  0.96698328  0.45663469    -1.07540
C244        C  0.27200021  0.00186624  0.78322051     0.03160
C245        C  0.28900359  0.03504704  0.76385951    -0.12990
C246        C  0.28080107  0.04248141  0.72321782     0.00660
C247        C  0.24645250  0.02474356  0.70713094    -0.11520
C248        C  0.22345550  0.99720644  0.72848612     0.03150
C249        C  0.23741560  0.98365273  0.76629676    -0.10940
H250        H  0.31344997  0.05027108  0.77874714     0.08750
H251        H  0.23850264  0.02928193  0.67627918     0.06280
H252        H  0.22313035  0.95855943  0.78101518     0.06120
C253        C  0.72426304  0.02134696  0.78301182     0.03160
C254        C  0.76549727  0.03077325  0.77503589    -0.12990
C255        C  0.78396574  0.01613865  0.73897829     0.00660
C256        C  0.76201593  0.99044810  0.71428853    -0.11520
C257        C  0.72096392  0.98662553  0.71923878     0.03150
C258        C  0.70284568  0.99982940  0.75434972    -0.10940
H259        H  0.78221136  0.04955322  0.79554138     0.08750
H260        H  0.77585721  0.97761790  0.68778119     0.06280
H261        H  0.67082285  0.99536705  0.75839153     0.06120
C262        C  0.28021879  0.99841560  0.23711313     0.03160
C263        C  0.24213934  0.01283723  0.24939394    -0.12990
C264        C  0.22167777  0.99313063  0.28091637     0.00660
C265        C  0.23833859  0.95837863  0.29760740    -0.11520
C266        C  0.27864158  0.94833934  0.29048370     0.03150
C267        C  0.29704890  0.96543608  0.25697128    -0.10940
H268        H  0.22985347  0.03995596  0.23642628     0.08750
H269        H  0.22184799  0.94325870  0.32112818     0.06280
H270        H  0.32709791  0.95664428  0.24888766     0.06120
O271        O  0.56582911  0.99519129  0.11686789    -0.80100
O272        O  0.56482949  0.01413843  0.89291774    -0.81650
O273        O  0.61540449  0.94281751  0.00842013    -0.78670
O274        O  0.60649187  0.07274869  0.01466299    -0.77060
O275        O  0.55613714  0.11896792  0.01683592    -0.78850
O276        O  0.57064489  0.89111259  0.00960655    -0.79780
O277        O  0.61145699  0.01398748  0.94303032    -0.81110
O278        O  0.61412623  0.00510284  0.06967794    -0.81400
Eu279      Eu  0.57706259  0.00564156  0.00717526     2.39200
O280        O  0.53374932  0.04611821  0.96911734    -0.88910
O281        O  0.53931215  0.96026679  0.04635201    -0.92510
C282        C  0.60299725  0.00033294  0.10620199     1.02180
C283        C  0.60178865  0.01611201  0.90576213     1.02000
C284        C  0.60712122  0.90515597  0.01038962     1.01940
C285        C  0.59399464  0.10924922  0.01806039     0.99800
H286        H  0.55780026  0.94968201  0.94896635     0.29550
O287        O  0.53885122  0.96415794  0.96548202    -1.01290
H288        H  0.55061171  0.05794410  0.06658034     0.29580
O289        O  0.53408366  0.04181723  0.04917075    -1.03840
O290        O  0.42836265  0.99374793  0.89319903    -0.81060
O291        O  0.42964234  0.00703557  0.12012579    -0.80600
O292        O  0.50772738  0.89043594  0.93765357    -0.79040
O293        O  0.49288752  0.11793603  0.95036422    -0.82380
O294        O  0.49280056  0.11067641  0.07824104    -0.80230
O295        O  0.49199207  0.88502637  0.06946324    -0.78880
O296        O  0.38470880  0.93085349  0.00429194    -0.80400
O297        O  0.37493896  0.05772484  0.00238000    -0.82330
O298        O  0.43321691  0.88281434  0.99947011    -0.79060
O299        O  0.41886528  0.10988878  0.00971649    -0.81740
O300        O  0.50764686  0.94220832  0.89240836    -0.77470
O301        O  0.49008762  0.93299692  0.11879144    -0.77510
O302        O  0.50085239  0.06010680  0.12419696    -0.77150
O303        O  0.49493823  0.07273666  0.89832535    -0.80650
O304        O  0.38129149  0.99013337  0.94258445    -0.80070
O305        O  0.38096046  0.00372328  0.07234191    -0.78400
Eu306      Eu  0.49657443  0.00504174  0.92563899     2.39770
Eu307      Eu  0.49634948  0.99770785  0.08790262     2.39570
Eu308      Eu  0.50014061  0.91880598  0.00457466     2.38400
Eu309      Eu  0.49009398  0.08228924  0.01174398     2.39880
Eu310      Eu  0.41506294  0.99708183  0.00684018     2.39790
O311        O  0.45234504  0.03794135  0.05025600    -0.92820
O312        O  0.45868398  0.96048226  0.96516154    -0.91710
C313        C  0.39144614  0.98867757  0.90551229     1.02350
C314        C  0.39232805  0.00867862  0.10900774     1.01070
C315        C  0.51028103  0.90514255  0.90202489     1.00460
C316        C  0.49500155  0.10830767  0.91334316     1.02480
C317        C  0.49931306  0.09703045  0.11364508     1.01390
C318        C  0.48806276  0.89674613  0.10617301     1.00240
C319        C  0.39569299  0.89406166  0.00136661     1.00300
C320        C  0.38286072  0.09525936  0.00489032     1.02910
H321        H  0.43926532  0.93997169  0.06185317     0.30280
O322        O  0.45683236  0.95673548  0.04614789    -1.04980
H323        H  0.43534095  0.05757613  0.95090890     0.32330
O324        O  0.45285149  0.04157328  0.96750542    -1.07540
C325        C  0.51844261  0.23924092  0.28608234     0.03160
C326        C  0.53641873  0.21323217  0.25867213    -0.12990
C327        C  0.53891119  0.22285344  0.21853231     0.00660
C328        C  0.53082787  0.26130187  0.20554810    -0.11520
C329        C  0.51467531  0.28983169  0.23162552     0.03150
C330        C  0.50708712  0.27857147  0.27258112    -0.10940
H331        H  0.54219784  0.18231383  0.26719522     0.08750
H332        H  0.53271875  0.26765256  0.17365354     0.06280
H333        H  0.49222949  0.29921067  0.29278883     0.06120
C334        C  0.48000084  0.77173890  0.28579902     0.03160
C335        C  0.44966326  0.79111944  0.26412295    -0.12990
C336        C  0.44455308  0.78251675  0.22369415     0.00660
C337        C  0.45850705  0.74618167  0.20876860    -0.11520
C338        C  0.48737371  0.72425494  0.22984067     0.03150
C339        C  0.49956405  0.73782789  0.26848068    -0.10940
H340        H  0.43821889  0.81956870  0.27511648     0.08750
H341        H  0.45306818  0.73890633  0.17747855     0.06280
H342        H  0.52413650  0.72326768  0.28400062     0.06120
C343        C  0.50937122  0.77207603  0.71408801     0.03160
C344        C  0.52920207  0.79892636  0.73928408    -0.12990
C345        C  0.53303088  0.79093693  0.77985661     0.00660
C346        C  0.52159849  0.75406538  0.79468617    -0.11520
C347        C  0.50798892  0.72369074  0.76945573     0.03150
C348        C  0.49989711  0.73299340  0.72849678    -0.10940
H349        H  0.53618168  0.82885310  0.72859157     0.08750
H350        H  0.52154450  0.74923884  0.82687304     0.06280
H351        H  0.48637386  0.71106700  0.70880741     0.06120
C352        C  0.52068311  0.22785231  0.73087941     0.03160
C353        C  0.52042185  0.20741217  0.76726731    -0.12990
C354        C  0.52804198  0.22681895  0.80313878     0.00660
C355        C  0.53100153  0.26754999  0.80498306    -0.11520
C356        C  0.52329286  0.29058978  0.77113455     0.03150
C357        C  0.51922114  0.27098908  0.73278528    -0.10940
H358        H  0.51392143  0.17565607  0.76797674     0.08750
H359        H  0.53425948  0.28153240  0.83428683     0.06280
H360        H  0.51492075  0.28849143  0.70582279     0.06120
O361        O  0.00022424  0.43400839  0.11740554    -0.80100
O362        O  0.99955013  0.42951048  0.88847918    -0.81650
O363        O  0.93219582  0.38445385  0.01084866    -0.78670
O364        O  0.05664021  0.38203812  0.99436772    -0.77060
O365        O  0.10701442  0.42693317  0.98532365    -0.78850
O366        O  0.88198044  0.43096053  0.01490400    -0.79780
O367        O  0.99574309  0.38409326  0.93964034    -0.81110
O368        O  0.99783152  0.38669257  0.06849308    -0.81400
Eu369      Eu  0.99488977  0.41974801  0.00280836     2.39200
O370        O  0.03339041  0.45829419  0.95850895    -0.88910
O371        O  0.95634742  0.46201012  0.04328797    -0.92510
C372        C  0.99967599  0.39665754  0.10571558     1.02180
C373        C  0.99902730  0.39303578  0.90239194     1.02000
C374        C  0.89525219  0.39409717  0.01615735     1.01940
C375        C  0.09331107  0.39029830  0.98647890     0.99800
H376        H  0.93739080  0.43925030  0.94664159     0.29550
O377        O  0.95340598  0.45831668  0.96134895    -1.01290
H378        H  0.05446341  0.44038982  0.05529110     0.29580
O379        O  0.03825196  0.45900954  0.04018322    -1.03840
O380        O  0.98909900  0.56933688  0.88733534    -0.81060
O381        O  0.00393969  0.57234947  0.11268828    -0.80600
O382        O  0.87869406  0.48599873  0.93680185    -0.79040
O383        O  0.10610479  0.49997805  0.92914863    -0.82380
O384        O  0.11105118  0.48828127  0.05986084    -0.80230
O385        O  0.88472513  0.50093504  0.06773242    -0.78880
O386        O  0.93364131  0.61515617  0.00233976    -0.80400
O387        O  0.06260553  0.61166841  0.99668690    -0.82330
O388        O  0.88238469  0.56962550  0.00289190    -0.79060
O389        O  0.11200026  0.56413724  0.99564301    -0.81740
O390        O  0.92710429  0.48768761  0.88845573    -0.77470
O391        O  0.93542380  0.50480880  0.11398400    -0.77510
O392        O  0.06573389  0.49253774  0.11171200    -0.77150
O393        O  0.05571647  0.50093566  0.88233124    -0.80650
O394        O  0.99444379  0.61574767  0.93763025    -0.80070
O395        O  0.99948877  0.61731740  0.06126473    -0.78400
Eu396      Eu  0.99236716  0.49900865  0.91798109     2.39770
Eu397      Eu  0.00018181  0.50178947  0.08226754     2.39570
Eu398      Eu  0.91294416  0.49974583  0.00167431     2.38400
Eu399      Eu  0.07799063  0.49686587  0.99590729     2.39880
Eu400      Eu  0.99710685  0.57890649  0.99946481     2.39790
O401        O  0.04079758  0.53987018  0.03891502    -0.92820
O402        O  0.95271089  0.54051988  0.95939063    -0.91230
C403        C  0.99121666  0.60619304  0.90061291     1.02350
C404        C  0.00218881  0.60894842  0.09872554     1.01070
C405        C  0.89088656  0.48112979  0.90023215     1.00460
C406        C  0.09284520  0.50156340  0.89300599     1.02480
C407        C  0.10096526  0.48683248  0.09710172     1.01390
C408        C  0.89843670  0.50243036  0.10368971     1.00240
C409        C  0.89611292  0.60623688  0.00356518     1.00300
C410        C  0.09985891  0.60120915  0.99554209     1.02910
H411        H  0.94130373  0.55771296  0.05784130     0.30280
O412        O  0.95688652  0.53983583  0.04114900    -1.04980
H413        H  0.05148056  0.55542552  0.94002219     0.32330
O414        O  0.03567145  0.53828876  0.95714532    -1.07540
C415        C  0.76153556  0.48799994  0.28583574     0.03160
C416        C  0.78912689  0.48500123  0.25503150    -0.12990
C417        C  0.77745135  0.47494629  0.21682317     0.00660
C418        C  0.73912577  0.46330551  0.20883665    -0.11520
C419        C  0.70864826  0.47074303  0.23631974     0.03150
C420        C  0.71965399  0.48293417  0.27638524    -0.10940
H421        H  0.82065748  0.49104801  0.26076199     0.08750
H422        H  0.73263583  0.45354308  0.17864919     0.06280
H423        H  0.69683440  0.48852518  0.29882429     0.06120
C424        C  0.23088103  0.49962394  0.27520967     0.03160
C425        C  0.20834067  0.48118003  0.24535768    -0.12990
C426        C  0.22551917  0.47043800  0.20907590     0.00660
C427        C  0.26663337  0.47214992  0.20393695    -0.11520
C428        C  0.29030542  0.49373065  0.23093299     0.03150
C429        C  0.27251207  0.50758418  0.26762190    -0.10940
H430        H  0.17606393  0.47825814  0.24907807     0.08750
H431        H  0.27922075  0.46228898  0.17555700     0.06280
H432        H  0.29003055  0.52473181  0.28887499     0.06120
C433        C  0.23323736  0.52008392  0.71049802     0.03160
C434        C  0.27387557  0.51700029  0.72439607    -0.12990
C435        C  0.28263992  0.52701913  0.76533016     0.00660
C436        C  0.25140783  0.54263220  0.78900190    -0.11520
C437        C  0.21171132  0.53837127  0.77703052     0.03150
C438        C  0.20298588  0.52718961  0.73826226    -0.10940
H439        H  0.29727849  0.50628972  0.70456234     0.08750
H440        H  0.25717679  0.55046139  0.82009409     0.06280
H441        H  0.17200694  0.52201318  0.72971154     0.06120
C442        C  0.77884504  0.49673877  0.72268747     0.03160
C443        C  0.79627515  0.46229935  0.73895583    -0.12990
C444        C  0.78620872  0.44861484  0.77724477     0.00660
C445        C  0.75007184  0.46311889  0.79372264    -0.11520
C446        C  0.73179321  0.49807304  0.77909445     0.03150
C447        C  0.74670899  0.51563583  0.74332557    -0.10940
H448        H  0.82056259  0.44896959  0.72256420     0.08750
H449        H  0.73868629  0.45112140  0.82159697     0.06280
H450        H  0.73409971  0.54342143  0.73223476     0.06120
C451        C  0.21354451  0.26874538  0.00017299     0.03160
C452        C  0.22284918  0.22807138  0.99112692    -0.12990
C453        C  0.26317332  0.21501848  0.99655259     0.00660
C454        C  0.29258780  0.24381112  0.00304448    -0.11520
C455        C  0.28274822  0.28090415  0.01945978     0.03150
C456        C  0.24179890  0.29083424  0.02193548    -0.10940
H457        H  0.20025241  0.20798141  0.97939426     0.08750
H458        H  0.32334459  0.23564740  0.99726679     0.06280
H459        H  0.23207192  0.31875412  0.03529828     0.06120
O460        O  0.50676658  0.39303116  0.06792870    -0.80100
O461        O  0.50588962  0.62036885  0.07031001    -0.81650
O462        O  0.56608522  0.50216952  0.11534327    -0.78670
O463        O  0.44207914  0.50473646  0.11472841    -0.77060
O464        O  0.39061193  0.50524359  0.06941787    -0.78850
O465        O  0.61706081  0.50153847  0.06942819    -0.79780
O466        O  0.50632837  0.56843704  0.11461892    -0.81110
O467        O  0.50627457  0.44314015  0.11486862    -0.81400
Eu468      Eu  0.50503977  0.50540328  0.07817954     2.39200
O469        O  0.46245740  0.54555529  0.04013753    -0.88910
O470        O  0.54648746  0.46416684  0.03820053    -0.92510
C471        C  0.50644079  0.40600301  0.10515663     1.02180
C472        C  0.50624775  0.60601471  0.10668788     1.02000
C473        C  0.60321123  0.50017171  0.10616327     1.01940
C474        C  0.40455129  0.50537041  0.10595611     0.99800
H475        H  0.56229911  0.56552341  0.05745598     0.29550
O476        O  0.54536230  0.54921564  0.04053649    -1.01290
H477        H  0.44939763  0.44724997  0.05644335     0.29580
O478        O  0.46487626  0.46387606  0.03854716    -1.03840
O479        O  0.49858073  0.62242605  0.93306160    -0.81060
O480        O  0.50608671  0.39674346  0.92425200    -0.80600
O481        O  0.61762277  0.57365928  0.99079910    -0.79040
O482        O  0.38928981  0.56790651  0.00977302    -0.82380
O483        O  0.39613498  0.43686737  0.00557955    -0.80230
O484        O  0.61542662  0.44332354  0.98460451    -0.78880
O485        O  0.56674467  0.51576258  0.88522696    -0.80400
O486        O  0.43571295  0.51017451  0.88443574    -0.82330
O487        O  0.61691488  0.51384171  0.93158473    -0.79060
O488        O  0.38741856  0.50713528  0.93241287    -0.81740
O489        O  0.56599590  0.61871118  0.98790884    -0.77470
O490        O  0.57019002  0.39215906  0.98627144    -0.77510
O491        O  0.44225792  0.38712254  0.99929557    -0.77150
O492        O  0.43534418  0.61893418  0.00882061    -0.80650
O493        O  0.49912962  0.57307881  0.88527865    -0.80070
O494        O  0.50639587  0.44848407  0.87919652    -0.78400
Eu495      Eu  0.50142660  0.58904077  0.00110379     2.39770
Eu496      Eu  0.50527704  0.42351060  0.99665359     2.39570
Eu497      Eu  0.58568283  0.50819135  0.99942979     2.38400
Eu498      Eu  0.42187917  0.50430124  0.00013830     2.39880
Eu499      Eu  0.50108340  0.50906373  0.91881240     2.39790
O500        O  0.46202791  0.46447772  0.95739263    -0.92820
O501        O  0.54154929  0.54784289  0.96093076    -0.91710
C502        C  0.49870961  0.60993636  0.89601648     1.02350
C503        C  0.50789115  0.41107136  0.88769960     1.01070
C504        C  0.60322598  0.60918634  0.98547720     1.00460
C505        C  0.39952630  0.60489024  0.01219482     1.02480
C506        C  0.40606158  0.39981598  0.00429651     1.01390
C507        C  0.60556723  0.40622389  0.98043834     1.00240
C508        C  0.60423111  0.51647642  0.89481199     1.00300
C509        C  0.39845444  0.50961607  0.89506525     1.02910
H510        H  0.55918829  0.45460259  0.93921983     0.30280
O511        O  0.54310410  0.46914404  0.95835758    -1.04980
H512        H  0.44234805  0.56511432  0.94460357     0.32330
O513        O  0.46000064  0.54842763  0.96043500    -1.07540
C514        C  0.73347268  0.79017894  0.99084025     0.03160
C515        C  0.76913421  0.77259502  0.00678591    -0.12990
C516        C  0.78136607  0.73407661  0.99291342     0.00660
C517        C  0.75533878  0.71251219  0.96824112    -0.11520
C518        C  0.71940632  0.72908357  0.95456000     0.03150
C519        C  0.71260753  0.76988089  0.96060131    -0.10940
H520        H  0.78593247  0.78764737  0.03012420     0.08750
H521        H  0.76136016  0.68100526  0.96366542     0.06280
H522        H  0.68509085  0.78296909  0.94893710     0.06120
C523        C  0.27569234  0.76997545  0.01151675     0.03160
C524        C  0.23697342  0.75790438  0.99796281    -0.12990
C525        C  0.21785432  0.72460158  0.01661688     0.00660
C526        C  0.23716457  0.70532822  0.04854110    -0.11520
C527        C  0.27788251  0.71206791  0.05525648     0.03150
C528        C  0.29506188  0.74712145  0.04061796    -0.10940
H529        H  0.22282231  0.77304650  0.97296665     0.08750
H530        H  0.22393820  0.67826666  0.06079970     0.06280
H531        H  0.32625568  0.75364138  0.04705767     0.06120
C532        C  0.71940472  0.23053433  0.02012413     0.03160
C533        C  0.75913320  0.23863489  0.03442164    -0.12990
C534        C  0.78219451  0.26949714  0.01565783     0.00660
C535        C  0.76555241  0.29011057  0.98311737    -0.11520
C536        C  0.72461423  0.28931754  0.97692311     0.03150
C537        C  0.70267262  0.25739952  0.99259293    -0.10940
H538        H  0.77159571  0.22186019  0.05922701     0.08750
H539        H  0.78333943  0.31141334  0.96651955     0.06280
H540        H  0.67120088  0.25454896  0.98496201     0.06120
C541        C  0.67692421  0.39121867  0.97849152    -0.05750
C542        C  0.63811770  0.37876414  0.96864265     0.00180
C543        C  0.63263511  0.34102929  0.94970676    -0.08390
C544        C  0.66693174  0.31795230  0.94179406    -0.05770
C545        C  0.70258636  0.32531821  0.96302406     0.00160
C546        C  0.70802036  0.36364189  0.98144886    -0.08300
C547        C  0.74151043  0.37406755  0.01073510     0.62070
H548        H  0.68128652  0.42098391  0.99050892     0.12770
H549        H  0.66400568  0.28960825  0.92621752     0.12780
C550        C  0.59165033  0.32293527  0.94136899     0.62310
F551        F  0.73714139  0.41184862  0.02747154    -0.22860
F552        F  0.77836876  0.37367561  0.99200816    -0.20190
F553        F  0.74042219  0.34715600  0.04201975    -0.19860
F554        F  0.56893857  0.34861780  0.91848048    -0.19920
F555        F  0.57215427  0.31542837  0.97721495    -0.20240
F556        F  0.59439516  0.28701417  0.92086900    -0.22910
C557        C  0.37474825  0.65758290  0.05575114    -0.05750
C558        C  0.36771611  0.63244791  0.02285200     0.00180
C559        C  0.32869593  0.62817212  0.00708081    -0.08390
C560        C  0.29748364  0.64834347  0.02606453    -0.05770
C561        C  0.30486707  0.67701410  0.05622401     0.00160
C562        C  0.34364376  0.67949587  0.07325807    -0.08300
C563        C  0.35379232  0.70553222  0.10887984     0.62070
H564        H  0.40456901  0.65908060  0.06883755     0.12770
H565        H  0.26786804  0.64553516  0.01305906     0.12780
C566        C  0.31865746  0.60506249  0.96898316     0.62310
F567        F  0.37096840  0.68215833  0.13858512    -0.22860
F568        F  0.32026422  0.72422783  0.12485888    -0.20190
F569        F  0.38120367  0.73426343  0.09702135    -0.19860
F570        F  0.29744968  0.57093558  0.97894081    -0.19920
F571        F  0.35224780  0.59433768  0.94700491    -0.20240
F572        F  0.29503140  0.62867268  0.94428640    -0.22910
C573        C  0.65159820  0.71071381  0.97595074    -0.05750
C574        C  0.68435186  0.70203156  0.95071150     0.00180
C575        C  0.68718368  0.66362121  0.93295244    -0.08390
C576        C  0.66104531  0.63350494  0.94617034    -0.05770
C577        C  0.63059582  0.64166224  0.97424393     0.00160
C578        C  0.62463282  0.68135109  0.98821720    -0.08300
C579        C  0.59134560  0.69284161  0.01753396     0.62070
H580        H  0.64866234  0.74026014  0.98874439     0.12770
H581        H  0.66384804  0.60360311  0.93373572     0.12780
C582        C  0.71734348  0.65336389  0.90046123     0.62310
F583        F  0.59674481  0.73072027  0.03323092    -0.22860
F584        F  0.59064900  0.66631655  0.04937630    -0.20190
F585        F  0.55459912  0.69275874  0.99815339    -0.19860
F586        F  0.74620729  0.62789799  0.91587187    -0.19920
F587        F  0.73603636  0.68706932  0.88527153    -0.20240
F588        F  0.69799501  0.63439203  0.86903577    -0.22910
C589        C  0.30390990  0.35145047  0.01609600    -0.05750
C590        C  0.31446561  0.31178314  0.02543363     0.00180
C591        C  0.35577651  0.30245902  0.03175164    -0.08390
C592        C  0.38446052  0.33108298  0.02120638    -0.05770
C593        C  0.37364599  0.37037254  0.01077933     0.00160
C594        C  0.33228823  0.38099450  0.00898276    -0.08300
C595        C  0.31735840  0.42222042  0.99625948     0.62070
H596        H  0.27299628  0.35953513  0.01200270     0.12770
H597        H  0.41582518  0.32265036  0.02224978     0.12780
C598        C  0.37150644  0.26386307  0.05043861     0.62310
F599        F  0.27640492  0.42367290  0.98934274    -0.22860
F600        F  0.33629665  0.43231239  0.96096574    -0.20190
F601        F  0.32552830  0.45022917  0.02575213    -0.19860
F602        F  0.34163351  0.24236690  0.06923692    -0.19920
F603        F  0.39987161  0.27245219  0.07931287    -0.20240
F604        F  0.38982637  0.24043615  0.02141713    -0.22910
C605        C  0.65923937  0.51128924  0.79238889    -0.05750
C606        C  0.69922666  0.51566636  0.80465615     0.00180
C607        C  0.70701221  0.52751354  0.84481842    -0.08390
C608        C  0.67512125  0.52813997  0.87268226    -0.05770
C609        C  0.63511635  0.52000559  0.86157899     0.00160
C610        C  0.62669329  0.51506627  0.81962115    -0.08300
C611        C  0.58418384  0.51416289  0.80269754     0.62070
H612        H  0.65382659  0.50310163  0.76141823     0.12770
H613        H  0.68155682  0.53481051  0.90378464     0.12780
C614        C  0.74873258  0.54070519  0.85799253     0.62310
F615        F  0.58406681  0.51151187  0.76123433    -0.22860
F616        F  0.56424623  0.54908831  0.81296601    -0.20190
F617        F  0.56321651  0.48165022  0.81723321    -0.19860
F618        F  0.77634924  0.51015487  0.85442576    -0.19920
F619        F  0.74915424  0.55282421  0.89764583    -0.20240
F620        F  0.76095524  0.57248967  0.83442580    -0.22910
C621        C  0.30997441  0.48958585  0.82253450    -0.05750
C622        C  0.31885695  0.51409265  0.78945608     0.00180
C623        C  0.35541601  0.53548565  0.79047550    -0.08390
C624        C  0.38057464  0.53217195  0.82493733    -0.05770
C625        C  0.36802290  0.51273728  0.86085218     0.00160
C626        C  0.32917523  0.49460558  0.85986557    -0.08300
C627        C  0.30262880  0.48461031  0.89550770     0.62070
H628        H  0.28214267  0.47287790  0.82170918     0.12770
H629        H  0.40951409  0.54688827  0.82470637     0.12780
C630        C  0.36745064  0.56156970  0.75539587     0.62310
F631        F  0.26522758  0.50205247  0.89003218    -0.22860
F632        F  0.31639913  0.49911182  0.93149577    -0.20190
F633        F  0.29747200  0.44359293  0.89742183    -0.19860
F634        F  0.33927183  0.59159113  0.74992436    -0.19920
F635        F  0.36955970  0.53843924  0.72101575    -0.20240
F636        F  0.40453118  0.57927019  0.76139593    -0.22910
C637        C  0.32759922  0.53819167  0.18540436    -0.05750
C638        C  0.32963749  0.50636028  0.21314466     0.00180
C639        C  0.36031004  0.47739034  0.20774613    -0.08390
C640        C  0.38419446  0.47841438  0.17265470    -0.05770
C641        C  0.37706367  0.50620989  0.14159265     0.00160
C642        C  0.34861593  0.53712869  0.14837967    -0.08300
C643        C  0.33884093  0.56754278  0.11590841     0.62070
H644        H  0.30518438  0.56110143  0.19037019     0.12770
H645        H  0.40752321  0.45613356  0.16834743     0.12780
C646        C  0.36663754  0.44484306  0.23879196     0.62310
F647        F  0.32224117  0.54828118  0.08313481    -0.22860
F648        F  0.37324926  0.58681394  0.10381746    -0.20190
F649        F  0.31178754  0.59626179  0.12906220    -0.19860
F650        F  0.33356589  0.41991162  0.24015271    -0.19920
F651        F  0.37196068  0.46228069  0.27606863    -0.20240
F652        F  0.40016780  0.42168823  0.23033274    -0.22910
C653        C  0.65545623  0.51333341  0.20778543    -0.05750
C654        C  0.66867813  0.47407786  0.21580120     0.00180
C655        C  0.65708143  0.44328252  0.18828390    -0.08390
C656        C  0.63920045  0.45370094  0.15138077    -0.05770
C657        C  0.62958041  0.49343924  0.14173770     0.00160
C658        C  0.63541927  0.52338750  0.17158228    -0.08300
C659        C  0.62123776  0.56607516  0.16469514     0.62070
H660        H  0.66427458  0.53682435  0.22839070     0.12770
H661        H  0.63197305  0.43025079  0.13003859     0.12780
C662        C  0.66839933  0.39961518  0.19446257     0.62310
F663        F  0.63318557  0.59147587  0.19528187    -0.22860
F664        F  0.57978139  0.56705375  0.16286603    -0.20190
F665        F  0.63681735  0.58036241  0.12902221    -0.19860
F666        F  0.67993056  0.39220587  0.23365630    -0.19920
F667        F  0.69953402  0.38922473  0.16898755    -0.20240
F668        F  0.63604742  0.37536236  0.18554040    -0.22910
C669        C  0.81164886  0.67975728  0.03341219    -0.05750
C670        C  0.81767818  0.71116593  0.00600813     0.00180
C671        C  0.85197124  0.70970279  0.98095717    -0.08390
C672        C  0.87659420  0.67509667  0.98112800    -0.05770
C673        C  0.86811843  0.64169232  0.00559682     0.00160
C674        C  0.83653233  0.64529119  0.03393380    -0.08300
C675        C  0.82869024  0.61279781  0.06435073     0.62070
H676        H  0.78502194  0.68086018  0.05207707     0.12770
H677        H  0.90202595  0.67335351  0.96091859     0.12780
C678        C  0.86143087  0.74434506  0.95316342     0.62310
F679        F  0.80112480  0.62513499  0.09290084    -0.22860
F680        F  0.86397159  0.60298270  0.08403993    -0.20190
F681        F  0.81367273  0.57942435  0.04494246    -0.19860
F682        F  0.86361937  0.77936602  0.97528147    -0.19920
F683        F  0.83161432  0.74824070  0.92453641    -0.20240
F684        F  0.89774825  0.73896931  0.93361585    -0.22910
C685        C  0.81749595  0.31887356  0.05857206    -0.05750
C686        C  0.82072949  0.28737358  0.03041311     0.00180
C687        C  0.85309093  0.28879770  0.00314577    -0.08390
C688        C  0.87496136  0.32452201  0.99885448    -0.05770
C689        C  0.86785881  0.35869614  0.02268702     0.00160
C690        C  0.83977961  0.35507906  0.05456891    -0.08300
C691        C  0.83273350  0.38940619  0.08349213     0.62070
H692        H  0.79404751  0.31682498  0.08095334     0.12770
H693        H  0.89737840  0.32598164  0.97568211     0.12780
C694        C  0.86237428  0.25424145  0.97521612     0.62310
F695        F  0.80570696  0.37934677  0.11337490    -0.22860
F696        F  0.81757536  0.42215688  0.06308344    -0.20190
F697        F  0.86859435  0.39976929  0.10144138    -0.19860
F698        F  0.85154970  0.26445544  0.93651517    -0.19920
F699        F  0.84203445  0.21981309  0.98611915    -0.20240
F700        F  0.90310504  0.24595723  0.97633898    -0.22910
C701        C  0.11891254  0.67074229  0.01564217    -0.05750
C702        C  0.12956147  0.63520746  0.99506289     0.00180
C703        C  0.16636002  0.63463651  0.97339610    -0.08390
C704        C  0.19215171  0.66827366  0.97581554    -0.05770
C705        C  0.18306853  0.70189842  0.99980962     0.00160
C706        C  0.14511260  0.70380984  0.01859149    -0.08300
C707        C  0.13315077  0.74049966  0.04269031     0.62070
H708        H  0.09037084  0.67186115  0.03118869     0.12770
H709        H  0.22144028  0.66711692  0.96173329     0.12780
C710        C  0.17890596  0.59869433  0.94834428     0.62310
F711        F  0.09379882  0.73832964  0.05594133    -0.22860
F712        F  0.13687573  0.77424191  0.01893180    -0.20190
F713        F  0.15783888  0.74437796  0.07581936    -0.19860
F714        F  0.14837610  0.58845562  0.92215096    -0.19920
F715        F  0.18737648  0.56658626  0.97315155    -0.20240
F716        F  0.21288873  0.60652512  0.92577592    -0.22910
C717        C  0.16034457  0.36144408  0.96589065    -0.05750
C718        C  0.12109941  0.35488196  0.97958270     0.00180
C719        C  0.10939399  0.31372151  0.98444953    -0.08390
C720        C  0.13962459  0.28461876  0.99179400    -0.05770
C721        C  0.17972368  0.29291555  0.98280664     0.00160
C722        C  0.18797875  0.32959248  0.96268537    -0.08300
C723        C  0.22304367  0.33457378  0.93413651     0.62070
H724        H  0.16889832  0.39089098  0.95547032     0.12770
H725        H  0.13185499  0.25507455  0.00267830     0.12780
C726        C  0.06795035  0.29883958  0.97263879     0.62310
F727        F  0.20806793  0.34061119  0.89589986    -0.22860
F728        F  0.24777766  0.30125612  0.93292879    -0.20190
F729        F  0.24552298  0.36753905  0.94458414    -0.19860
F730        F  0.05788184  0.31460776  0.93567010    -0.19920
F731        F  0.03924284  0.30972070  0.00000625    -0.20240
F732        F  0.06710233  0.25748097  0.96929701    -0.22910
C733        C  0.80737925  0.42399786  0.84462099    -0.05750
C734        C  0.81832299  0.43219628  0.80472462     0.00180
C735        C  0.85857530  0.44404167  0.79852430    -0.08390
C736        C  0.87828156  0.46423955  0.82925591    -0.05770
C737        C  0.86377288  0.46382553  0.86900061     0.00160
C738        C  0.82908055  0.44016582  0.87724689    -0.08300
C739        C  0.81447395  0.43169715  0.91943897     0.62070
H740        H  0.77943553  0.40843700  0.84991034     0.12770
H741        H  0.90710532  0.47749096  0.82218589     0.12780
C742        C  0.88347663  0.43120237  0.76273251     0.62310
F743        F  0.78126849  0.40683145  0.91947002    -0.22860
F744        F  0.80358388  0.46703478  0.93824640    -0.20190
F745        F  0.84457442  0.41281774  0.94084411    -0.19860
F746        F  0.88992710  0.46358014  0.73767502    -0.19920
F747        F  0.86502864  0.40040117  0.74202348    -0.20240
F748        F  0.92042910  0.41697833  0.77554529    -0.22910
C749        C  0.18735078  0.49825731  0.83237709    -0.05750
C750        C  0.18096836  0.53132482  0.80723316     0.00180
C751        C  0.14431248  0.55256376  0.80816787    -0.08390
C752        C  0.11489714  0.53952863  0.83492578    -0.05770
C753        C  0.12241660  0.50811322  0.86182885     0.00160
C754        C  0.15891801  0.48659733  0.86053700    -0.08300
C755        C  0.16765161  0.45113668  0.88785057     0.62070
H756        H  0.21489781  0.48134601  0.82953854     0.12770
H757        H  0.08599700  0.55434968  0.83558514     0.12780
C758        C  0.13660730  0.58913358  0.78209084     0.62310
F759        F  0.20100371  0.42967106  0.87523739    -0.22860
F760        F  0.13522098  0.42528661  0.88816347    -0.20190
F761        F  0.17512593  0.46453943  0.92638651    -0.19860
F762        F  0.13020481  0.57777077  0.74277880    -0.19920
F763        F  0.16920123  0.61468810  0.78384102    -0.20240
F764        F  0.10305895  0.61021966  0.79474127    -0.22910
C765        C  0.16845029  0.44083127  0.17449413    -0.05750
C766        C  0.19902337  0.46951711  0.17438729     0.00180
C767        C  0.19726605  0.50283537  0.14786511    -0.08390
C768        C  0.16443824  0.50646379  0.12282624    -0.05770
C769        C  0.13314635  0.47932076  0.12467497     0.00160
C770        C  0.13463243  0.44558549  0.15019032    -0.08300
C771        C  0.10068086  0.41552641  0.15231292     0.62070
H772        H  0.17005099  0.41640512  0.19583617     0.12770
H773        H  0.16218041  0.53141175  0.10211269     0.12780
C774        C  0.22879634  0.53534501  0.14628027     0.62310
F775        F  0.11009171  0.38329238  0.17672261    -0.22860
F776        F  0.09255332  0.40098380  0.11435860    -0.20190
F777        F  0.06682881  0.43390537  0.16781838    -0.19860
F778        F  0.26400355  0.51873290  0.13236629    -0.19920
F779        F  0.23396482  0.55180893  0.18391179    -0.20240
F780        F  0.21860265  0.56629669  0.12052084    -0.22910
C781        C  0.84268535  0.46193769  0.19064536    -0.05750
C782        C  0.80566476  0.48024990  0.18480023     0.00180
C783        C  0.79944258  0.50873184  0.15396189    -0.08390
C784        C  0.83160427  0.51652120  0.12871592    -0.05770
C785        C  0.86912229  0.49878467  0.13523852     0.00160
C786        C  0.87552511  0.47281294  0.16803716    -0.08300
C787        C  0.91574876  0.45448860  0.17806856     0.62070
H788        H  0.84584686  0.44037667  0.21476573     0.12770
H789        H  0.82758856  0.53604427  0.10328675     0.12780
C790        C  0.76001107  0.53131809  0.14776873     0.62310
F791        F  0.91402354  0.43098191  0.21205248    -0.22860
F792        F  0.94387819  0.48400599  0.18548201    -0.20190
F793        F  0.92740578  0.43086992  0.14623200    -0.19860
F794        F  0.74730019  0.54835091  0.18343757    -0.19920
F795        F  0.73082347  0.50580305  0.13328093    -0.20240
F796        F  0.76396303  0.56184436  0.12013506    -0.22910
C797        C  0.54997544  0.35405243  0.79596341    -0.05750
C798        C  0.51589241  0.33337525  0.78222433     0.00180
C799        C  0.47835041  0.34314829  0.80011990    -0.08390
C800        C  0.47714958  0.36803113  0.83464880    -0.05770
C801        C  0.51223634  0.38392269  0.85190954     0.00160
C802        C  0.54921160  0.37844945  0.83069211    -0.08300
C803        C  0.58958860  0.39492100  0.84405702     0.62070
H804        H  0.57881098  0.34658013  0.78270278     0.12770
H805        H  0.44869507  0.37440293  0.84910276     0.12780
C806        C  0.43995660  0.32484677  0.78398143     0.62310
F807        F  0.60665429  0.41638443  0.81298905    -0.22860
F808        F  0.61500991  0.36335353  0.85314407    -0.20190
F809        F  0.58709822  0.41958847  0.87719693    -0.19860
F810        F  0.43996044  0.28390977  0.79024886    -0.19920
F811        F  0.43721698  0.33226979  0.74325844    -0.20240
F812        F  0.40624678  0.34086099  0.80237749    -0.22910
C813        C  0.53893357  0.67058263  0.80903019    -0.05750
C814        C  0.50359941  0.68432639  0.79016661     0.00180
C815        C  0.46606423  0.67129259  0.80529611    -0.08390
C816        C  0.46520593  0.64746328  0.84047545    -0.05770
C817        C  0.50049199  0.63859265  0.86204817     0.00160
C818        C  0.53798693  0.64999509  0.84580520    -0.08300
C819        C  0.57670027  0.64288027  0.86881411     0.62070
H820        H  0.56744559  0.68115829  0.79752325     0.12770
H821        H  0.43690183  0.63638400  0.85196144     0.12780
C822        C  0.42732685  0.68325384  0.78464249     0.62310
F823        F  0.60998940  0.65692993  0.84834272    -0.22860
F824        F  0.58220506  0.60248651  0.87569620    -0.20190
F825        F  0.57451006  0.66269890  0.90516146    -0.19860
F826        F  0.42833508  0.67053949  0.74515689    -0.19920
F827        F  0.42279794  0.72443662  0.78561298    -0.20240
F828        F  0.39414909  0.66623904  0.80290409    -0.22910
C829        C  0.48243917  0.65398079  0.20921399    -0.05750
C830        C  0.50448288  0.68947635  0.20744231     0.00180
C831        C  0.53105723  0.69531338  0.17464049    -0.08390
C832        C  0.53101804  0.66764946  0.14238450    -0.05770
C833        C  0.50636678  0.63353970  0.14257024     0.00160
C834        C  0.48318307  0.62557292  0.17786439    -0.08300
C835        C  0.45715970  0.58851159  0.18200189     0.62070
H836        H  0.46220597  0.65012857  0.23436027     0.12770
H837        H  0.54995280  0.67279412  0.11653809     0.12780
C838        C  0.55888989  0.73114778  0.17374498     0.62310
F839        F  0.43177806  0.59056357  0.21486553    -0.22860
F840        F  0.48111431  0.55491164  0.18646097    -0.20190
F841        F  0.43358258  0.58447250  0.14838238    -0.19860
F842        F  0.58064052  0.73260809  0.20907744    -0.19920
F843        F  0.53694386  0.76605932  0.16979706    -0.20240
F844        F  0.58580526  0.72895041  0.14214231    -0.22910
C845        C  0.47270270  0.32670562  0.18217149    -0.05750
C846        C  0.50359183  0.32834499  0.21104235     0.00180
C847        C  0.53218758  0.35937544  0.20753446    -0.08390
C848        C  0.53309535  0.38317435  0.17220259    -0.05770
C849        C  0.50516289  0.37787066  0.14067174     0.00160
C850        C  0.47236741  0.35190625  0.14794644    -0.08300
C851        C  0.43724063  0.35087192  0.11945629     0.62070
H852        H  0.45043575  0.30327044  0.18501751     0.12770
H853        H  0.55609763  0.40580999  0.16879172     0.12780
C854        C  0.56172194  0.36652821  0.24127612     0.62310
F855        F  0.40637616  0.32728043  0.13395169    -0.22860
F856        F  0.45028310  0.33565466  0.08328343    -0.20190
F857        F  0.42216962  0.38913351  0.11383265    -0.19860
F858        F  0.58922377  0.33543656  0.24292456    -0.19920
F859        F  0.54124454  0.36849965  0.27733678    -0.20240
F860        F  0.58207074  0.40227483  0.23642776    -0.22910
C861        C  0.65216411  0.20707227  0.04295968    -0.05750
C862        C  0.69197435  0.19665155  0.03243765     0.00180
C863        C  0.69952110  0.15656241  0.02077189    -0.08390
C864        C  0.66703558  0.12927534  0.01833422    -0.05770
C865        C  0.62639233  0.14087546  0.02424490     0.00160
C866        C  0.61905496  0.18126959  0.03631712    -0.08300
C867        C  0.57691352  0.19877890  0.03925467     0.62070
H868        H  0.64673706  0.23784421  0.05179810     0.12770
H869        H  0.67337000  0.09872882  0.00949366     0.12780
C870        C  0.74150838  0.14305447  0.00908053     0.62310
F871        F  0.57717920  0.23869634  0.05061633    -0.22860
F872        F  0.55461161  0.17820958  0.06725709    -0.20190
F873        F  0.55830308  0.19645221  0.00221513    -0.19860
F874        F  0.76720670  0.14813895  0.04123474    -0.19920
F875        F  0.75513826  0.16536513  0.97691067    -0.20240
F876        F  0.74259416  0.10304757  0.99812241    -0.22910
C877        C  0.29400598  0.84043703  0.01722006    -0.05750
C878        C  0.29950635  0.80462923  0.99628931     0.00180
C879        C  0.33622276  0.79892774  0.97504828    -0.08390
C880        C  0.36680657  0.82827849  0.97749817    -0.05770
C881        C  0.36206946  0.86357099  0.00012682     0.00160
C882        C  0.32443174  0.86963919  0.02020090    -0.08300
C883        C  0.31588828  0.90626464  0.04576668     0.62070
H884        H  0.26634574  0.84391196  0.03401316     0.12770
H885        H  0.39479176  0.82336715  0.96157941     0.12780
C886        C  0.34505625  0.76161102  0.95059158     0.62310
F887        F  0.28122560  0.90225021  0.06838412    -0.22860
F888        F  0.31069145  0.93873107  0.02071734    -0.20190
F889        F  0.34724050  0.91305251  0.07218042    -0.19860
F890        F  0.31212863  0.73666925  0.94716811    -0.19920
F891        F  0.37610241  0.74049024  0.96836213    -0.20240
F892        F  0.35659937  0.77264536  0.91229499    -0.22910
C893        C  0.67505138  0.81326773  0.03041965    -0.05750
C894        C  0.71020999  0.82381862  0.00948637     0.00180
C895        C  0.71386215  0.86341508  0.99543445    -0.08390
C896        C  0.68019806  0.88938206  0.99757981    -0.05770
C897        C  0.64270562  0.87690484  0.01327340     0.00160
C898        C  0.64126144  0.83896797  0.03260275    -0.08300
C899        C  0.60437373  0.82507565  0.05521911     0.62070
H900        H  0.67287058  0.78301300  0.04192309     0.12770
H901        H  0.68267258  0.91915866  0.98523997     0.12780
C902        C  0.75313361  0.87734483  0.97739293     0.62310
F903        F  0.61284729  0.79265278  0.07966547    -0.22860
F904        F  0.57466501  0.81415990  0.02838132    -0.20190
F905        F  0.59041816  0.85548695  0.07955744    -0.19860
F906        F  0.75986541  0.85789982  0.94135089    -0.19920
F907        F  0.78426547  0.86866489  0.00349286    -0.20240
F908        F  0.75317263  0.91821537  0.97071404    -0.22910
C909        C  0.29314124  0.15530752  0.96410913    -0.05750
C910        C  0.27853203  0.17324469  0.99920940     0.00180
C911        C  0.29496724  0.16082361  0.03654941    -0.08390
C912        C  0.33093607  0.13833105  0.03695288    -0.05770
C913        C  0.34740971  0.12259646  0.00155986     0.00160
C914        C  0.32585732  0.12818535  0.96501471    -0.08300
C915        C  0.33427044  0.10338401  0.92787125     0.62070
H916        H  0.27965057  0.16375336  0.93577110     0.12770
H917        H  0.34555292  0.13149517  0.06516363     0.12780
C918        C  0.27364490  0.17081878  0.07568535     0.62310
F919        F  0.32200982  0.12302501  0.89341646    -0.22860
F920        F  0.31325903  0.06802203  0.93073763    -0.20190
F921        F  0.37448213  0.09449102  0.92407674    -0.19860
F922        F  0.23549753  0.15457313  0.07473844    -0.19920
F923        F  0.27020481  0.21168114  0.08120059    -0.20240
F924        F  0.29370330  0.15507798  0.10849586    -0.22910
C925        C  0.48241647  0.19950896  0.85100629    -0.05750
C926        C  0.52235759  0.20482457  0.83953776     0.00180
C927        C  0.55364019  0.18191083  0.85606329    -0.08390
C928        C  0.54301048  0.14915761  0.87936144    -0.05770
C929        C  0.50255108  0.14106256  0.88709022     0.00160
C930        C  0.47183314  0.16752379  0.87519226    -0.08300
C931        C  0.42824301  0.16037427  0.88556081     0.62070
H932        H  0.45939465  0.21850113  0.83799333     0.12770
H933        H  0.56601133  0.12976346  0.89185832     0.12780
C934        C  0.59736005  0.19271389  0.84968197     0.62310
F935        F  0.40350027  0.19073015  0.87159669    -0.22860
F936        F  0.42369793  0.15830085  0.92674515    -0.20190
F937        F  0.41628929  0.12482725  0.86804694    -0.19860
F938        F  0.60409376  0.23097027  0.86391312    -0.19920
F939        F  0.60673772  0.19165933  0.80947283    -0.20240
F940        F  0.62292948  0.16673168  0.86966654    -0.22910
C941        C  0.55164146  0.85297666  0.87164958    -0.05750
C942        C  0.51774954  0.87787370  0.86932316     0.00180
C943        C  0.49277655  0.87786897  0.83518153    -0.08390
C944        C  0.50161071  0.85097718  0.80479859    -0.05770
C945        C  0.53391064  0.82427086  0.80789435     0.00160
C946        C  0.56053686  0.82596471  0.84080098    -0.08300
C947        C  0.59841258  0.80053978  0.84260210     0.62070
H948        H  0.57092084  0.85485549  0.89778762     0.12770
H949        H  0.48217090  0.84946400  0.77890618     0.12780
C950        C  0.45635595  0.90511542  0.83107486     0.62310
F951        F  0.62368355  0.81292101  0.87316358    -0.22860
F952        F  0.61907508  0.80375035  0.80675242    -0.20190
F953        F  0.58904708  0.76081966  0.84924204    -0.19860
F954        F  0.46890262  0.94415269  0.82549806    -0.19920
F955        F  0.43266249  0.90272775  0.86510554    -0.20240
F956        F  0.43282073  0.89466400  0.79853241    -0.22910
C957        C  0.48788972  0.83536284  0.19958218    -0.05750
C958        C  0.45058879  0.81614679  0.19631549     0.00180
C959        C  0.42507163  0.82420379  0.16373156    -0.08390
C960        C  0.43960359  0.84890901  0.13297004    -0.05770
C961        C  0.47745381  0.86729149  0.13617705     0.00160
C962        C  0.50136334  0.86182782  0.17060524    -0.08300
C963        C  0.53967939  0.88520118  0.17819244     0.62070
H964        H  0.50699155  0.82878068  0.22493289     0.12770
H965        H  0.42079517  0.85575454  0.10731550     0.12780
C966        C  0.38218545  0.80924541  0.16355030     0.62310
F967        F  0.56243833  0.86854799  0.20871184    -0.22860
F968        F  0.52952945  0.92370836  0.18924137    -0.20190
F969        F  0.56327831  0.88640151  0.14423174    -0.19860
F970        F  0.36168488  0.82649368  0.19527604    -0.19920
F971        F  0.38132047  0.76819662  0.16809143    -0.20240
F972        F  0.36248479  0.81905255  0.12830448    -0.22910
C973        C  0.49119694  0.17593087  0.19132565    -0.05750
C974        C  0.53079119  0.19035327  0.19103157     0.00180
C975        C  0.56055730  0.17262384  0.16703511    -0.08390
C976        C  0.54933018  0.14006465  0.14333281    -0.05770
C977        C  0.50954035  0.12634177  0.14325987     0.00160
C978        C  0.48006929  0.14350147  0.16784528    -0.08300
C979        C  0.43766729  0.12711553  0.16939878     0.62070
H980        H  0.46913925  0.19035212  0.21030746     0.12770
H981        H  0.57110713  0.12580955  0.12373897     0.12780
C982        C  0.60313146  0.18853320  0.16623029     0.62310
F983        F  0.41378984  0.14792017  0.19635643    -0.22860
F984        F  0.43912428  0.08753302  0.18129185    -0.20190
F985        F  0.42005952  0.12949507  0.13188800    -0.19860
F986        F  0.61946642  0.18676123  0.20433738    -0.19920
F987        F  0.60285968  0.22790559  0.15334484    -0.20240
F988        F  0.62744265  0.16660242  0.14057791    -0.22910
C989        C  0.29188104  0.01928010  0.16652136    -0.05750
C990        C  0.30580171  0.01786422  0.20602495     0.00180
C991        C  0.34734286  0.02408725  0.21305737    -0.08390
C992        C  0.37426154  0.02029448  0.18091633    -0.05770
C993        C  0.36100323  0.01646557  0.14098416     0.00160
C994        C  0.31879067  0.02118498  0.13375658    -0.08300
C995        C  0.30141652  0.02850940  0.09248476     0.62070
H996        H  0.25989225  0.01643576  0.16130180     0.12770
H997        H  0.40608300  0.02013556  0.18759531     0.12780
C998        C  0.36457128  0.03355248  0.25414566     0.62310
F999        F  0.26154184  0.04036727  0.09425090    -0.22860
F1000       F  0.30346096  0.99399833  0.07017479    -0.20190
F1001       F  0.32252667  0.05854396  0.07359499    -0.19860
F1002       F  0.38921378  0.00256775  0.26659445    -0.19920
F1003       F  0.33501998  0.03975928  0.28267176    -0.20240
F1004       F  0.38716271  0.06818910  0.25173788    -0.22910
C1005       C  0.63218287  0.04791797  0.84422742    -0.05750
C1006       C  0.63622773  0.02125284  0.87657524     0.00180
C1007       C  0.67384549  0.00094734  0.88122042    -0.08390
C1008       C  0.70505173  0.00726863  0.85299905    -0.05770
C1009       C  0.70023247  0.03221620  0.81962022     0.00160
C1010       C  0.66351059  0.05409079  0.81613758    -0.08300
C1011       C  0.65519523  0.08251549  0.78168709     0.62070
H1012       H  0.60411942  0.06410022  0.84065250     0.12770
H1013       H  0.73256710  0.98998221  0.85487736     0.12780
C1014       C  0.68062811  0.97035598  0.91419935     0.62310
F1015       F  0.64113229  0.11847853  0.79670991    -0.22860
F1016       F  0.62621989  0.06612062  0.75692536    -0.20190
F1017       F  0.68913280  0.09053617  0.75919009    -0.19860
F1018       F  0.64870580  0.94392991  0.91578981    -0.19920
F1019       F  0.68470400  0.98971174  0.95066957    -0.20240
F1020       F  0.71508911  0.94805358  0.90761292    -0.22910
C1021       C  0.36764890  0.97467349  0.83510787    -0.05750
C1022       C  0.35792465  0.98149618  0.87552118     0.00180
C1023       C  0.31603306  0.97958351  0.88588741    -0.08390
C1024       C  0.28695732  0.98504663  0.85526007    -0.05770
C1025       C  0.29779640  0.98310920  0.81478317     0.00160
C1026       C  0.33773259  0.97146162  0.80541850    -0.08300
C1027       C  0.34932393  0.95300149  0.76547809     0.62070
H1028       H  0.39869364  0.97074416  0.82655768     0.12770
H1029       H  0.25576902  0.99049816  0.86282848     0.12780
C1030       C  0.30151267  0.96622613  0.92698630     0.62310
F1031       F  0.35936311  0.91330809  0.77169476    -0.22860
F1032       F  0.38225810  0.97239415  0.74992376    -0.20190
F1033       F  0.31872318  0.95402248  0.73748409    -0.19860
F1034       F  0.32282533  0.93249170  0.93845206    -0.19920
F1035       F  0.26123497  0.95591656  0.92622193    -0.20240
F1036       F  0.30629299  0.99596634  0.95533636    -0.22910
C1037       C  0.46847911  0.16498288  0.35519749    -0.05750
C1038       C  0.50273173  0.14666883  0.37202747     0.00180
C1039       C  0.54043071  0.16565335  0.36649853    -0.08390
C1040       C  0.54240677  0.20228793  0.34531297    -0.05770
C1041       C  0.50894754  0.21895606  0.32538552     0.00160
C1042       C  0.47100048  0.20047217  0.33162127    -0.08300
C1043       C  0.43348889  0.21797858  0.31257636     0.62070
H1044       H  0.43978270  0.15058495  0.35969694     0.12770
H1045       H  0.57166089  0.21472943  0.33844220     0.12780
C1046       C  0.57951308  0.14305007  0.37287549     0.62310
F1047       F  0.39950676  0.19623066  0.32215731    -0.22860
F1048       F  0.43706005  0.21825207  0.27131929    -0.20190
F1049       F  0.42815618  0.25684213  0.32599787    -0.19860
F1050       F  0.58605995  0.11927054  0.33959584    -0.19920
F1051       F  0.57861917  0.11901727  0.40653795    -0.20240
F1052       F  0.61154553  0.16909692  0.37692188    -0.22910
C1053       C  0.52414816  0.82495223  0.31210397    -0.05750
C1054       C  0.49522423  0.79547231  0.32050803     0.00180
C1055       C  0.47135328  0.79985094  0.35530528    -0.08390
C1056       C  0.47450390  0.83518633  0.37832707    -0.05770
C1057       C  0.50083812  0.86662394  0.36795301     0.00160
C1058       C  0.52727140  0.86050486  0.33509679    -0.08300
C1059       C  0.55858509  0.89121536  0.32437022     0.62070
H1060       H  0.54232548  0.82128139  0.28542437     0.12770
H1061       H  0.45533910  0.83895283  0.40433477     0.12780
C1062       C  0.44212647  0.76724058  0.36742442     0.62310
F1063       F  0.58336031  0.87835724  0.29355136    -0.22860
F1064       F  0.58232850  0.89857818  0.35760164    -0.20190
F1065       F  0.53963871  0.92599918  0.31212089    -0.19860
F1066       F  0.46238790  0.73108630  0.36988820    -0.19920
F1067       F  0.41177189  0.76397406  0.33932507    -0.20240
F1068       F  0.42472727  0.77497960  0.40437229    -0.22910
C1069       C  0.53226766  0.13405956  0.66538979    -0.05750
C1070       C  0.50430693  0.14018052  0.63482412     0.00180
C1071       C  0.48472166  0.17846925  0.63272955    -0.08390
C1072       C  0.49189755  0.20754185  0.66325561    -0.05770
C1073       C  0.52014793  0.20112652  0.69389640     0.00160
C1074       C  0.54267506  0.16438082  0.69271346    -0.08300
C1075       C  0.57876583  0.15576208  0.71922555     0.62070
H1076       H  0.54832340  0.10575740  0.66642649     0.12770
H1077       H  0.47495957  0.23525817  0.66379195     0.12780
C1078       C  0.45565541  0.18868498  0.59915304     0.62310
F1079       F  0.60812189  0.13574962  0.69759235    -0.22860
F1080       F  0.56746070  0.13163368  0.75101339    -0.20190
F1081       F  0.59579941  0.19071700  0.73326676    -0.19860
F1082       F  0.42708141  0.15893515  0.59570929    -0.19920
F1083       F  0.47628832  0.19234251  0.56337374    -0.20240
F1084       F  0.43595432  0.22462170  0.60600835    -0.22910
C1085       C  0.46592865  0.85190808  0.65019269    -0.05750
C1086       C  0.49799948  0.85812497  0.62354476     0.00180
C1087       C  0.52751098  0.82724224  0.61973089    -0.08390
C1088       C  0.52720575  0.79473656  0.64670170    -0.05770
C1089       C  0.49688175  0.79012716  0.67528615     0.00160
C1090       C  0.46395559  0.81724258  0.67461187    -0.08300
C1091       C  0.42672005  0.80868721  0.69932784     0.62070
H1092       H  0.44193143  0.87386086  0.65102990     0.12770
H1093       H  0.55189673  0.77353443  0.64714334     0.12780
C1094       C  0.55811651  0.82689840  0.58615546     0.62310
F1095       F  0.39692152  0.83694897  0.69280348    -0.22860
F1096       F  0.43568518  0.80838847  0.73974836    -0.20190
F1097       F  0.41180323  0.77153147  0.68867634    -0.19860
F1098       F  0.57669527  0.86362963  0.58226861    -0.19920
F1099       F  0.53822422  0.81753326  0.55102556    -0.20240
F1100       F  0.58786611  0.79853439  0.59242772    -0.22910
C1101       C  0.29313887  0.94909275  0.36313593    -0.05750
C1102       C  0.30485932  0.93570794  0.32490155     0.00180
C1103       C  0.34592878  0.92604604  0.31937166    -0.08390
C1104       C  0.37430897  0.94290140  0.34548682    -0.05770
C1105       C  0.36238366  0.96512973  0.37940899     0.00160
C1106       C  0.32082110  0.96455970  0.39060969    -0.08300
C1107       C  0.30430455  0.98110643  0.43017029     0.62070
H1108       H  0.26169865  0.95178587  0.37015007     0.12770
H1109       H  0.40596401  0.93801618  0.33951312     0.12780
C1110       C  0.36040586  0.89697181  0.28756212     0.62310
F1111       F  0.26291067  0.97815032  0.43282469    -0.22860
F1112       F  0.31398232  0.02121634  0.43406549    -0.20190
F1113       F  0.31968355  0.95958886  0.46205059    -0.19860
F1114       F  0.38710053  0.91570345  0.26192967    -0.19920
F1115       F  0.32883068  0.88152427  0.26545197    -0.20240
F1116       F  0.37996483  0.86538809  0.30604036    -0.22910
C1117       C  0.66493618  0.00289661  0.62353617    -0.05750
C1118       C  0.63084086  0.98015278  0.63120320     0.00180
C1119       C  0.62897729  0.95474071  0.66511309    -0.08390
C1120       C  0.66278046  0.95276281  0.68999793    -0.05770
C1121       C  0.69511110  0.97911174  0.68458100     0.00160
C1122       C  0.69580511  0.00534872  0.65101757    -0.08300
C1123       C  0.72519179  0.03970988  0.64627310     0.62070
H1124       H  0.66542365  0.02210626  0.59735485     0.12770
H1125       H  0.66242309  0.93394511  0.71646544     0.12780
C1126       C  0.59149642  0.93150043  0.67623345     0.62310
F1127       F  0.71484712  0.06530903  0.61527417    -0.22860
F1128       F  0.76307817  0.02518373  0.63782759    -0.20190
F1129       F  0.72519589  0.06212613  0.68109032    -0.19860
F1130       F  0.57842897  0.90968776  0.64372165    -0.19920
F1131       F  0.56155007  0.95774421  0.68810611    -0.20240
F1132       F  0.59841483  0.90505898  0.70748244    -0.22910
C1133       C  0.35353235  0.04831656  0.70696938    -0.05750
C1134       C  0.31360368  0.05577164  0.69524712     0.00180
C1135       C  0.30646144  0.06248579  0.65386575    -0.08390
C1136       C  0.33471915  0.04872676  0.62602317    -0.05770
C1137       C  0.37218959  0.03348019  0.63811993     0.00160
C1138       C  0.38333483  0.03733253  0.67936976    -0.08300
C1139       C  0.42565728  0.02956592  0.69543150     0.62070
H1140       H  0.36119621  0.04765492  0.73826158     0.12770
H1141       H  0.32758071  0.05119201  0.59438305     0.12780
C1142       C  0.27099698  0.08589708  0.63774711     0.62310
F1143       F  0.42875846  0.03654023  0.73628592    -0.22860
F1144       F  0.45248500  0.05511725  0.67706472    -0.20190
F1145       F  0.43669522  0.99011176  0.68869669    -0.19860
F1146       F  0.24797909  0.10244532  0.66815562    -0.19920
F1147       F  0.24728085  0.06156893  0.61389551    -0.20240
F1148       F  0.28527711  0.11669003  0.61432342    -0.22910
C1149       C  0.67641098  0.99994255  0.12671779    -0.05750
C1150       C  0.63520723  0.00210430  0.13778084     0.00180
C1151       C  0.62600195  0.00894766  0.17860665    -0.08390
C1152       C  0.65721246  0.00655023  0.20665107    -0.05770
C1153       C  0.69767696  0.01072042  0.19599978     0.00160
C1154       C  0.70780537  0.00649751  0.15500529    -0.08300
C1155       C  0.75107924  0.00920025  0.14141980     0.62070
H1156       H  0.68393163  0.99533055  0.09546398     0.12770
H1157       H  0.65039955  0.00583401  0.23777610     0.12780
C1158       C  0.58526631  0.02514998  0.19195750     0.62310
F1159       F  0.75454265  0.00553220  0.10018895    -0.22860
F1160       F  0.77318552  0.97880077  0.15896242    -0.20190
F1161       F  0.76699003  0.04576554  0.15262202    -0.19860
F1162       F  0.55716531  0.99495543  0.19303707    -0.19920
F1163       F  0.57287482  0.05497775  0.16605578    -0.20240
F1164       F  0.58653439  0.04250985  0.22935332    -0.22910
C1165       C  0.65951051  0.07207350  0.38467713    -0.05750
C1166       C  0.62881214  0.04542626  0.37360599     0.00180
C1167       C  0.62193393  0.03736006  0.33270727    -0.08390
C1168       C  0.64523091  0.05739365  0.30447706    -0.05770
C1169       C  0.68062572  0.07748544  0.31503094     0.00160
C1170       C  0.68535936  0.08862547  0.35579144    -0.08300
C1171       C  0.71571089  0.11915391  0.36958742     0.62070
H1172       H  0.66310091  0.08038278  0.41593096     0.12770
H1173       H  0.63760010  0.05455034  0.27374339     0.12780
C1174       C  0.59199982  0.00578844  0.31902049     0.62310
F1175       F  0.69572765  0.14990221  0.38908884    -0.22860
F1176       F  0.73684496  0.13548608  0.33783211    -0.20190
F1177       F  0.74239665  0.10147676  0.39607229    -0.19860
F1178       F  0.55383485  0.02215934  0.31693867    -0.19920
F1179       F  0.59244353  0.97398861  0.34538739    -0.20240
F1180       F  0.60146402  0.98991479  0.28215637    -0.22910
C1181       C  0.35201764  0.79466435  0.51363388    -0.05750
C1182       C  0.32090525  0.79463131  0.48507455     0.00180
C1183       C  0.31929270  0.82738248  0.45756651    -0.08390
C1184       C  0.34547028  0.86036759  0.46255917    -0.05770
C1185       C  0.37391140  0.86188205  0.49352500     0.00160
C1186       C  0.37852371  0.82743821  0.51837494    -0.08300
C1187       C  0.41008783  0.82587483  0.55126314     0.62070
H1188       H  0.35306100  0.77005233  0.53476437     0.12770
H1189       H  0.34366350  0.88529544  0.44179802     0.12780
C1190       C  0.29042119  0.82967737  0.42255583     0.62310
F1191       F  0.40501746  0.79317387  0.57626122    -0.22860
F1192       F  0.40776379  0.86010153  0.57456453    -0.20190
F1193       F  0.44787403  0.82297079  0.53432742    -0.19860
F1194       F  0.26738135  0.86402901  0.42580347    -0.19920
F1195       F  0.26522519  0.79704893  0.42019524    -0.20240
F1196       F  0.31219771  0.83163659  0.38726138    -0.22910
C1197       C  0.70097958  0.83884139  0.47680546    -0.05750
C1198       C  0.69057521  0.80059289  0.49258865     0.00180
C1199       C  0.64947156  0.79483539  0.50224183    -0.08390
C1200       C  0.62269989  0.82811222  0.50006072    -0.05770
C1201       C  0.63505180  0.86769770  0.49079963     0.00160
C1202       C  0.67540916  0.87271178  0.47811282    -0.08300
C1203       C  0.69225809  0.91329658  0.46599386     0.62070
H1204       H  0.73081045  0.84273379  0.46462731     0.12770
H1205       H  0.59138739  0.82315814  0.50578124     0.12780
C1206       C  0.63311989  0.75410110  0.51362268     0.62310
F1207       F  0.73153232  0.91059630  0.45261399    -0.22860
F1208       F  0.69213284  0.93883891  0.49870654    -0.20190
F1209       F  0.66946981  0.92953322  0.43531255    -0.19860
F1210       F  0.65400603  0.73901061  0.54616503    -0.19920
F1211       F  0.63648946  0.72849783  0.48118853    -0.20240
F1212       F  0.59288537  0.75567413  0.52387267    -0.22910
C1213       C  0.66097362  0.14069636  0.54470210    -0.05750
C1214       C  0.62594927  0.14725908  0.52197731     0.00180
C1215       C  0.61779523  0.18772842  0.50932358    -0.08390
C1216       C  0.64766597  0.21746600  0.51440942    -0.05770
C1217       C  0.68393480  0.20965316  0.53398498     0.00160
C1218       C  0.68897086  0.17155962  0.55238306    -0.08300
C1219       C  0.72426492  0.16200264  0.57944715     0.62070
H1220       H  0.66650897  0.11116275  0.55705849     0.12770
H1221       H  0.64413484  0.24665557  0.50068897     0.12780
C1222       C  0.57849795  0.20040613  0.48971223     0.62310
F1223       F  0.71001692  0.14806261  0.61581787    -0.22860
F1224       F  0.74776237  0.19519836  0.58717303    -0.20190
F1225       F  0.74789801  0.13270627  0.56189221    -0.19860
F1226       F  0.54726614  0.19606453  0.51665408    -0.19920
F1227       F  0.57130927  0.17751374  0.45614733    -0.20240
F1228       F  0.57889132  0.24010797  0.47768605    -0.22910
C1229       C  0.35045903  0.20983110  0.47261433    -0.05750
C1230       C  0.32748806  0.22044862  0.50623768     0.00180
C1231       C  0.33272278  0.19741774  0.54165521    -0.08390
C1232       C  0.35250622  0.15980626  0.53940545    -0.05770
C1233       C  0.37088081  0.14655646  0.50374018     0.00160
C1234       C  0.37158956  0.17326326  0.47054595    -0.08300
C1235       C  0.39460889  0.16333753  0.43270739     0.62070
H1236       H  0.34755636  0.22831723  0.44606711     0.12770
H1237       H  0.35529861  0.14165296  0.56620828     0.12780
C1238       C  0.32012800  0.21283811  0.58252038     0.62310
F1239       F  0.38553456  0.18960855  0.40193307    -0.22860
F1240       F  0.38550100  0.12499264  0.41988329    -0.20190
F1241       F  0.43516864  0.16618840  0.44051877    -0.19860
F1242       F  0.28937635  0.19001736  0.59777237    -0.19920
F1243       F  0.30767969  0.25225330  0.58125296    -0.20240
F1244       F  0.35240389  0.21059328  0.60852809    -0.22910
C1245       C  0.85043401  0.05025773  0.65680876    -0.05750
C1246       C  0.87616862  0.01699896  0.65361552     0.00180
C1247       C  0.88010177  0.99214907  0.68829097    -0.08390
C1248       C  0.85295087  0.99685823  0.72074571    -0.05770
C1249       C  0.82405561  0.02754931  0.72173959     0.00160
C1250       C  0.82648340  0.05731438  0.69127509    -0.08300
C1251       C  0.80623442  0.09786748  0.69490788     0.62070
H1252       H  0.84983169  0.07176447  0.63276608     0.12770
H1253       H  0.85183323  0.97453346  0.74427021     0.12780
C1254       C  0.91148956  0.95936036  0.69051019     0.62310
F1255       F  0.83541930  0.12680022  0.69963499    -0.22860
F1256       F  0.78072252  0.10014356  0.72750910    -0.20190
F1257       F  0.78489482  0.10657425  0.66039260    -0.19860
F1258       F  0.94950119  0.97588195  0.69157079    -0.19920
F1259       F  0.90775975  0.93491628  0.65734353    -0.20240
F1260       F  0.90737256  0.93625350  0.72466878    -0.22910
C1261       C  0.12458430  0.00620640  0.67745684    -0.05750
C1262       C  0.13390521  0.98881485  0.63993861     0.00180
C1263       C  0.16874315  0.96423135  0.63720657    -0.08390
C1264       C  0.19458794  0.96121866  0.67073705    -0.05770
C1265       C  0.18740415  0.98256312  0.70650538     0.00160
C1266       C  0.15070285  0.00348018  0.71066038    -0.08300
C1267       C  0.14039208  0.02457276  0.74967287     0.62070
H1268       H  0.09723177  0.02362013  0.68022619     0.12770
H1269       H  0.22304592  0.94565905  0.66781163     0.12780
C1270       C  0.17883531  0.94121035  0.59932814     0.62310
F1271       F  0.10204111  0.04072303  0.74896679    -0.22860
F1272       F  0.16728571  0.05528552  0.75675283    -0.20190
F1273       F  0.14239245  0.99740261  0.78091690    -0.19860
F1274       F  0.18864457  0.96751302  0.56887466    -0.19920
F1275       F  0.14607897  0.91859920  0.58812653    -0.20240
F1276       F  0.21100932  0.91540429  0.60480131    -0.22910
C1277       C  0.14907050  0.99286816  0.29487164    -0.05750
C1278       C  0.18653095  0.01010175  0.30277397     0.00180
C1279       C  0.19192162  0.03100637  0.33953243    -0.08390
C1280       C  0.16199911  0.02864704  0.36929737    -0.05770
C1281       C  0.12562263  0.00844252  0.36286240     0.00160
C1282       C  0.11787820  0.99267455  0.32365514    -0.08300
C1283       C  0.07779621  0.97421478  0.31204763     0.62070
H1284       H  0.14543148  0.97717328  0.26665826     0.12770
H1285       H  0.16725340  0.04292156  0.39806548     0.12780
C1286       C  0.22892072  0.05551178  0.34942969     0.62310
F1287       F  0.07842534  0.95838328  0.27363655    -0.22860
F1288       F  0.04804025  0.00321688  0.31301743    -0.20190
F1289       F  0.06831467  0.94355629  0.33814555    -0.19860
F1290       F  0.25564053  0.05819966  0.31792556    -0.19920
F1291       F  0.24849674  0.03870468  0.38176485    -0.20240
F1292       F  0.21723016  0.09401785  0.35959255    -0.22910
C1293       C  0.82377308  0.98724551  0.37789579    -0.05750
C1294       C  0.86303656  0.00061530  0.37026542     0.00180
C1295       C  0.87228151  0.01372980  0.33022408    -0.08390
C1296       C  0.84161584  0.01411428  0.30084111    -0.05770
C1297       C  0.80225283  0.00261227  0.30949441     0.00160
C1298       C  0.79371328  0.98685172  0.34811138    -0.08300
C1299       C  0.75253942  0.97125877  0.35984054     0.62070
H1300       H  0.81594652  0.97769416  0.40776061     0.12770
H1301       H  0.84723312  0.02678353  0.27148080     0.12780
C1302       C  0.91312569  0.03053859  0.31845573     0.62310
F1303       F  0.75646484  0.93307460  0.37531745    -0.22860
F1304       F  0.72630996  0.96913074  0.32773647    -0.20190
F1305       F  0.73601656  0.99592188  0.38888340    -0.19860
F1306       F  0.94188770  0.00056125  0.31929521    -0.19920
F1307       F  0.92355392  0.06106675  0.34447044    -0.20240
F1308       F  0.91312560  0.04640270  0.28007941    -0.22910
C1309       C  0.12643887  0.84210544  0.54675900    -0.05750
C1310       C  0.13053933  0.86875956  0.51446219     0.00180
C1311       C  0.16637950  0.87023597  0.49209797    -0.08390
C1312       C  0.19805434  0.84629934  0.50452961    -0.05770
C1313       C  0.19391552  0.81850751  0.53596451     0.00160
C1314       C  0.15803171  0.81713862  0.55841192    -0.08300
C1315       C  0.15180397  0.79006998  0.59438268     0.62070
H1316       H  0.09870047  0.84160937  0.56376011     0.12770
H1317       H  0.22507676  0.84643174  0.48647901     0.12780
C1318       C  0.17236113  0.89406991  0.45360111     0.62310
F1319       F  0.13991019  0.81293855  0.62692860    -0.22860
F1320       F  0.18633689  0.76962160  0.60516714    -0.20190
F1321       F  0.12200216  0.76255799  0.58582969    -0.19860
F1322       F  0.20109599  0.92320561  0.46001738    -0.19920
F1323       F  0.13782311  0.91221169  0.43957532    -0.20240
F1324       F  0.18562980  0.86856507  0.42362617    -0.22910
C1325       C  0.87823939  0.83804783  0.53061001    -0.05750
C1326       C  0.87066272  0.86951349  0.50405855     0.00180
C1327       C  0.84658071  0.86420652  0.46981013    -0.08390
C1328       C  0.82793791  0.82745668  0.46482090    -0.05770
C1329       C  0.83290603  0.79721955  0.49342905     0.00160
C1330       C  0.86145331  0.80076438  0.52438698    -0.08300
C1331       C  0.87604522  0.76682463  0.55079578     0.62070
H1332       H  0.89946829  0.84208481  0.55503547     0.12770
H1333       H  0.80616476  0.82332752  0.44097636     0.12780
C1334       C  0.83960095  0.89751221  0.43987648     0.62310
F1335       F  0.91764781  0.76639145  0.55104397    -0.22860
F1336       F  0.86381280  0.72988575  0.53735702    -0.20190
F1337       F  0.86249167  0.77261670  0.58955531    -0.19860
F1338       F  0.87586863  0.91034957  0.42430951    -0.19920
F1339       F  0.82058623  0.92886331  0.45926792    -0.20240
F1340       F  0.81569335  0.88529817  0.40820228    -0.22910
C1341       C  0.84961853  0.14028605  0.45683218    -0.05750
C1342       C  0.86708019  0.13509461  0.49479256     0.00180
C1343       C  0.85669724  0.15976426  0.52727235    -0.08390
C1344       C  0.82810412  0.18915855  0.52082841    -0.05770
C1345       C  0.81222197  0.19621923  0.48254540     0.00160
C1346       C  0.82320222  0.17219692  0.44974051    -0.08300
C1347       C  0.80826872  0.18153879  0.40795428     0.62070
H1348       H  0.85780847  0.12006502  0.43273126     0.12770
H1349       H  0.81740866  0.20678566  0.54579491     0.12780
C1350       C  0.87477022  0.15395559  0.56860253     0.62310
F1351       F  0.82118827  0.15335930  0.38028336    -0.22860
F1352       F  0.82244066  0.21869496  0.39646284    -0.20190
F1353       F  0.76685826  0.18245157  0.40759531    -0.19860
F1354       F  0.91547099  0.16208155  0.56752543    -0.19920
F1355       F  0.86905610  0.11482428  0.58031007    -0.20240
F1356       F  0.85722425  0.17863810  0.59707658    -0.22910
C1357       C  0.16157083  0.13048436  0.50816745    -0.05750
C1358       C  0.13070282  0.13030151  0.48019836     0.00180
C1359       C  0.13176823  0.15514914  0.44595317    -0.08390
C1360       C  0.16497526  0.18031177  0.44113143    -0.05770
C1361       C  0.19523948  0.18186520  0.47033928     0.00160
C1362       C  0.19342008  0.15678915  0.50482573    -0.08300
C1363       C  0.22281683  0.15914189  0.53967396     0.62070
H1364       H  0.15956248  0.11053952  0.53374885     0.12770
H1365       H  0.16647003  0.20070727  0.41590879     0.12780
C1366       C  0.09804651  0.15547902  0.41532833     0.62310
F1367       F  0.21085105  0.13606115  0.57202265    -0.22860
F1368       F  0.22546771  0.19824850  0.55300517    -0.20190
F1369       F  0.26002934  0.14519545  0.52775347    -0.19860
F1370       F  0.06339888  0.17020580  0.43288551    -0.19920
F1371       F  0.09128610  0.11702245  0.40144082    -0.20240
F1372       F  0.10699913  0.17949801  0.38270932    -0.22910
C1373       C  0.96797929  0.67138652  0.12226994    -0.05750
C1374       C  0.00095654  0.64508487  0.12608700     0.00180
C1375       C  0.03341442  0.65738882  0.15076439    -0.08390
C1376       C  0.02945247  0.69269021  0.17456125    -0.05770
C1377       C  0.99457700  0.71697032  0.17366772     0.00160
C1378       C  0.96426982  0.70689395  0.14534806    -0.08300
C1379       C  0.92699192  0.73290226  0.14106694     0.62070
H1380       H  0.94423866  0.66320279  0.10161745     0.12770
H1381       H  0.05232095  0.69977430  0.19654282     0.12780
C1382       C  0.07218873  0.63353751  0.15141407     0.62310
F1383       F  0.90334008  0.72091032  0.10907977    -0.22860
F1384       F  0.93834268  0.77219817  0.13466891    -0.20190
F1385       F  0.90386279  0.73101562  0.17545526    -0.19860
F1386       F  0.08744246  0.63069038  0.11288431    -0.19920
F1387       F  0.06502687  0.59548442  0.16602912    -0.20240
F1388       F  0.10098447  0.65146025  0.17537246    -0.22910
C1389       C  0.96912403  0.87502940  0.33524744    -0.05750
C1390       C  0.99958123  0.87097012  0.36439152     0.00180
C1391       C  0.03167682  0.84408685  0.35600648    -0.08390
C1392       C  0.03019925  0.81985644  0.32084224    -0.05770
C1393       C  0.99800603  0.82174659  0.29324202     0.00160
C1394       C  0.96753385  0.85074843  0.30033425    -0.08300
C1395       C  0.93226180  0.85453677  0.27173028     0.62070
H1396       H  0.94556704  0.89680762  0.34073628     0.12770
H1397       H  0.05284296  0.79697326  0.31613500     0.12780
C1398       C  0.06757017  0.84138270  0.38384437     0.62310
F1399       F  0.90727676  0.88619311  0.28188574    -0.22860
F1400       F  0.90971291  0.81980071  0.27227315    -0.20190
F1401       F  0.94638175  0.86090863  0.23324764    -0.19860
F1402       F  0.05554034  0.82765975  0.42104644    -0.19920
F1403       F  0.08461597  0.87883322  0.38806526    -0.20240
F1404       F  0.09675886  0.81560490  0.36920603    -0.22910
C1405       C  0.98600236  0.29116570  0.85043652    -0.05750
C1406       C  0.01783442  0.29145338  0.82311031     0.00180
C1407       C  0.04572398  0.32362766  0.82491914    -0.08390
C1408       C  0.03735141  0.35719044  0.84919926    -0.05770
C1409       C  0.00396575  0.35811264  0.87474370     0.00160
C1410       C  0.97905882  0.32348614  0.87690693    -0.08300
C1411       C  0.94495307  0.32048328  0.90670771     0.62070
H1412       H  0.96486996  0.26659870  0.84880404     0.12770
H1413       H  0.05772996  0.38248429  0.84895635     0.12780
C1414       C  0.08310546  0.32465433  0.79919570     0.62310
F1415       F  0.92016634  0.28831095  0.89850022    -0.22860
F1416       F  0.92170981  0.35492092  0.90578413    -0.20190
F1417       F  0.96091631  0.31506882  0.94461103    -0.19860
F1418       F  0.07751036  0.35123426  0.76787130    -0.19920
F1419       F  0.09226649  0.28717142  0.78399863    -0.20240
F1420       F  0.11548190  0.33717233  0.82198760    -0.22910
C1421       C  0.97983548  0.15681599  0.70779921    -0.05750
C1422       C  0.01545287  0.17729355  0.71669782     0.00180
C1423       C  0.04966281  0.16958411  0.69236960    -0.08390
C1424       C  0.04535025  0.14696665  0.65679642    -0.05770
C1425       C  0.00816798  0.13087713  0.64527415     0.00160
C1426       C  0.97529358  0.13434574  0.67234560    -0.08300
C1427       C  0.93405207  0.11672770  0.66499452     0.62070
H1428       H  0.95358567  0.16253544  0.72627676     0.12770
H1429       H  0.07145888  0.14142530  0.63811134     0.12780
C1430       C  0.09125447  0.18444050  0.70299662     0.62310
F1431       F  0.92515113  0.09011884  0.69549387    -0.22860
F1432       F  0.93086854  0.09691667  0.62885813    -0.20190
F1433       F  0.90595443  0.14729482  0.66519915    -0.19860
F1434       F  0.11676440  0.15190460  0.70697519    -0.19920
F1435       F  0.09181269  0.20559191  0.73864269    -0.20240
F1436       F  0.10565506  0.20874519  0.67274193    -0.22910
C1437       C  0.02145360  0.69863302  0.83960675    -0.05750
C1438       C  0.98407653  0.71256351  0.82567412     0.00180
C1439       C  0.94887044  0.69287397  0.83925259    -0.08390
C1440       C  0.95234082  0.65713552  0.86187521    -0.05770
C1441       C  0.98992919  0.64135408  0.87286187     0.00160
C1442       C  0.02481216  0.66434450  0.86433997    -0.08300
C1443       C  0.06530305  0.65320177  0.88207285     0.62070
H1444       H  0.04826617  0.71370745  0.82918908     0.12770
H1445       H  0.92560074  0.64139837  0.87146253     0.12780
C1446       C  0.90779501  0.70972572  0.82905996     0.62310
F1447       F  0.09617368  0.67577331  0.86596523    -0.22860
F1448       F  0.07359894  0.61336108  0.87494713    -0.20190
F1449       F  0.06456064  0.65967000  0.92300445    -0.19860
F1450       F  0.90106812  0.70742940  0.78822114    -0.19920
F1451       F  0.90595104  0.74943178  0.84086576    -0.20240
F1452       F  0.87740000  0.68916998  0.84844149    -0.22910
C1453       C  0.02085492  0.84557746  0.71017304    -0.05750
C1454       C  0.98302561  0.82941440  0.71976344     0.00180
C1455       C  0.94971811  0.84101281  0.69556805    -0.08390
C1456       C  0.95633368  0.86218695  0.65954020    -0.05770
C1457       C  0.99449529  0.87604093  0.64855329     0.00160
C1458       C  0.02691890  0.86954188  0.67557625    -0.08300
C1459       C  0.06807354  0.88691075  0.66713288     0.62070
H1460       H  0.04636845  0.83643428  0.72816423     0.12770
H1461       H  0.93114818  0.86817600  0.63983872     0.12780
C1462       C  0.90684794  0.82933478  0.70549575     0.62310
F1463       F  0.09669122  0.87331000  0.69403976    -0.22860
F1464       F  0.06629137  0.92813404  0.67000953    -0.20190
F1465       F  0.08026457  0.87636195  0.62895010    -0.19860
F1466       F  0.88384624  0.86344669  0.71036226    -0.19920
F1467       F  0.90415624  0.80714859  0.74041508    -0.20240
F1468       F  0.89076528  0.80747596  0.67424650    -0.22910
C1469       C  0.20865378  0.65429683  0.49412928    -0.05750
C1470       C  0.20290440  0.69113638  0.47504696     0.00180
C1471       C  0.16578508  0.69753575  0.45459064    -0.08390
C1472       C  0.13468806  0.66874781  0.45731787    -0.05770
C1473       C  0.13932007  0.63283219  0.47882964     0.00160
C1474       C  0.17792430  0.62510521  0.49664107    -0.08300
C1475       C  0.18638364  0.58770913  0.52121268     0.62070
H1476       H  0.23659701  0.65005682  0.51023388     0.12770
H1477       H  0.10621929  0.67475104  0.44268651     0.12780
C1478       C  0.15689513  0.73534473  0.43101745     0.62310
F1479       F  0.22265886  0.58973313  0.54143621    -0.22860
F1480       F  0.18784700  0.55445436  0.49647266    -0.20190
F1481       F  0.15653529  0.58313886  0.54948752    -0.19860
F1482       F  0.19015949  0.75969812  0.42709034    -0.19920
F1483       F  0.12673385  0.75675266  0.44997347    -0.20240
F1484       F  0.14412164  0.72508143  0.39287663    -0.22910
C1485       C  0.86277144  0.34272353  0.54691563    -0.05750
C1486       C  0.85674616  0.37733986  0.52388906     0.00180
C1487       C  0.81609897  0.38692072  0.51239677    -0.08390
C1488       C  0.78576756  0.35769047  0.51732618    -0.05770
C1489       C  0.79305414  0.32147594  0.53700535     0.00160
C1490       C  0.83100155  0.31638173  0.55595266    -0.08300
C1491       C  0.83939226  0.28311449  0.58544639     0.62070
H1492       H  0.89238739  0.33659760  0.55901674     0.12770
H1493       H  0.75654027  0.36178789  0.50364104     0.12780
C1494       C  0.80367298  0.42732504  0.49507988     0.62310
F1495       F  0.85335931  0.29952476  0.62092850    -0.22860
F1496       F  0.86862607  0.25796216  0.57004213    -0.20190
F1497       F  0.80527194  0.26128175  0.59418610    -0.19860
F1498       F  0.82636502  0.43641969  0.46183530    -0.19920
F1499       F  0.80875225  0.45684139  0.52369993    -0.20240
F1500       F  0.76371179  0.42803842  0.48353272    -0.22910
C1501       C  0.16761169  0.30760353  0.53227598    -0.05750
C1502       C  0.20428185  0.31698407  0.51332400     0.00180
C1503       C  0.20948167  0.35607315  0.49823799    -0.08390
C1504       C  0.17640668  0.38273009  0.49872145    -0.05770
C1505       C  0.13761020  0.37118288  0.51177303     0.00160
C1506       C  0.13355175  0.33271529  0.52972997    -0.08300
C1507       C  0.09352898  0.31674333  0.54448578     0.62070
H1508       H  0.16448644  0.27774019  0.54457611     0.12770
H1509       H  0.18050821  0.41253715  0.48714677     0.12780
C1510       C  0.24941990  0.36914361  0.48079278     0.62310
F1511       F  0.09744493  0.28020569  0.56375924    -0.22860
F1512       F  0.06783706  0.31142135  0.51231617    -0.20190
F1513       F  0.07678378  0.34333408  0.57135708    -0.19860
F1514       F  0.25929136  0.34533884  0.44824587    -0.19920
F1515       F  0.27897432  0.36578840  0.50970962    -0.20240
F1516       F  0.24854475  0.40860619  0.46819082    -0.22910
C1517       C  0.78708261  0.64478402  0.46710005    -0.05750
C1518       C  0.77768782  0.66710613  0.50129978     0.00180
C1519       C  0.80144092  0.66027147  0.53613819    -0.08390
C1520       C  0.83932402  0.64118139  0.53248168    -0.05770
C1521       C  0.85182454  0.62396422  0.49603719     0.00160
C1522       C  0.82265526  0.62165331  0.46470740    -0.08300
C1523       C  0.82825628  0.59425182  0.42912370     0.62070
H1524       H  0.76812014  0.64859509  0.44097003     0.12770
H1525       H  0.85846105  0.63841700  0.55866347     0.12780
C1526       C  0.78804567  0.67471080  0.57708019     0.62310
F1527       F  0.79756011  0.59879635  0.40163909    -0.22860
F1528       F  0.82769671  0.55490007  0.44173303    -0.20190
F1529       F  0.86432398  0.60239117  0.41053086    -0.19860
F1530       F  0.74984541  0.69110594  0.57590787    -0.19920
F1531       F  0.81427425  0.70318988  0.59160540    -0.20240
F1532       F  0.78758687  0.64265643  0.60332590    -0.22910
C1533       C  0.13965611  0.53108095  0.33443995    -0.05750
C1534       C  0.13911035  0.50175302  0.36455419     0.00180
C1535       C  0.17430206  0.47760353  0.36958372    -0.08390
C1536       C  0.20713662  0.48203101  0.34292279    -0.05770
C1537       C  0.20698143  0.51027058  0.31188044     0.00160
C1538       C  0.17325745  0.53655307  0.30900409    -0.08300
C1539       C  0.17092554  0.56997228  0.27838116     0.62070
H1540       H  0.11393907  0.55068477  0.33127806     0.12770
H1541       H  0.23247829  0.46167901  0.34463741     0.12780
C1542       C  0.17762577  0.44684420  0.40285808     0.62310
F1543       F  0.16063762  0.60538055  0.29745306    -0.22860
F1544       F  0.14180976  0.56100526  0.25019326    -0.20190
F1545       F  0.20711174  0.57600484  0.25899877    -0.19860
F1546       F  0.14273683  0.42463578  0.40560843    -0.19920
F1547       F  0.18452325  0.46652913  0.43867969    -0.20240
F1548       F  0.20903026  0.42035505  0.39635215    -0.22910
C1549       C  0.79384064  0.45917470  0.34503505    -0.05750
C1550       C  0.78188122  0.49457694  0.32544934     0.00180
C1551       C  0.80662381  0.52918007  0.33053880    -0.08390
C1552       C  0.84284940  0.52618486  0.35268449    -0.05770
C1553       C  0.85550359  0.49024249  0.37076659     0.00160
C1554       C  0.83059626  0.45590165  0.36623155    -0.08300
C1555       C  0.84368400  0.41386074  0.37774942     0.62070
H1556       H  0.77696336  0.43206224  0.33901345     0.12770
H1557       H  0.86221419  0.55208441  0.35489941     0.12780
C1558       C  0.79933045  0.56719557  0.30637848     0.62310
F1559       F  0.81290041  0.39465258  0.39785399    -0.22860
F1560       F  0.87750694  0.41317059  0.40175187    -0.20190
F1561       F  0.85193359  0.39254468  0.34309784    -0.19860
F1562       F  0.75915239  0.57133235  0.29651848    -0.19920
F1563       F  0.82187824  0.56608479  0.27155854    -0.20240
F1564       F  0.81067488  0.60079198  0.32771316    -0.22910
C1565       C  0.16250934  0.54684372  0.63037783    -0.05750
C1566       C  0.14611076  0.50936062  0.62105005     0.00180
C1567       C  0.16768266  0.47452690  0.63290655    -0.08390
C1568       C  0.20241391  0.47850614  0.65734917    -0.05770
C1569       C  0.21732436  0.51628621  0.66879141     0.00160
C1570       C  0.19852334  0.55081638  0.65219568    -0.08300
C1571       C  0.21329901  0.59291005  0.66066995     0.62070
H1572       H  0.14707159  0.57362642  0.62055691     0.12770
H1573       H  0.21608315  0.45216576  0.67056372     0.12780
C1574       C  0.15328453  0.43336706  0.62051606     0.62310
F1575       F  0.21599479  0.61397269  0.62507060    -0.22860
F1576       F  0.25084041  0.59309396  0.67847162    -0.20190
F1577       F  0.18637342  0.61226884  0.68568663    -0.19860
F1578       F  0.15442257  0.43035260  0.57924584    -0.19920
F1579       F  0.11430716  0.42768424  0.63359703    -0.20240
F1580       F  0.17708946  0.40316618  0.63626988    -0.22910
C1581       C  0.82945460  0.49814673  0.62218118    -0.05750
C1582       C  0.86584257  0.51769025  0.63166308     0.00180
C1583       C  0.86808466  0.53875320  0.66873486    -0.08390
C1584       C  0.83551352  0.53632790  0.69599738    -0.05770
C1585       C  0.80089719  0.51368674  0.68765307     0.00160
C1586       C  0.79716220  0.49571345  0.64945234    -0.08300
C1587       C  0.75964351  0.47238469  0.63848569     0.62070
H1588       H  0.82710672  0.48265628  0.59380505     0.12770
H1589       H  0.83838959  0.54916095  0.72572291     0.12780
C1590       C  0.90460234  0.56330467  0.68002637     0.62310
F1591       F  0.76002958  0.46017828  0.59878052    -0.22860
F1592       F  0.72619022  0.49635187  0.64434056    -0.20190
F1593       F  0.75646650  0.43865080  0.66229760    -0.19860
F1594       F  0.91411500  0.58890441  0.64894958    -0.19920
F1595       F  0.93680311  0.53823604  0.68774800    -0.20240
F1596       F  0.89778188  0.58634281  0.71393097    -0.22910
C1597       C  0.99721327  0.66119494  0.29848489    -0.05750
C1598       C  0.96174767  0.68373744  0.30302856     0.00180
C1599       C  0.93359076  0.67480407  0.33303504    -0.08390
C1600       C  0.94292827  0.64373008  0.35926288    -0.05770
C1601       C  0.97884826  0.62205539  0.35530229     0.00160
C1602       C  0.00632923  0.63001673  0.32442071    -0.08300
C1603       C  0.04572041  0.60727214  0.32037899     0.62070
H1604       H  0.01845068  0.66934003  0.27523806     0.12770
H1605       H  0.92305343  0.63700154  0.38396995     0.12780
C1606       C  0.89445787  0.69788378  0.33718558     0.62310
F1607       F  0.06920978  0.62206285  0.28950347    -0.22860
F1608       F  0.03801422  0.56736906  0.31243179    -0.20190
F1609       F  0.06742076  0.61036508  0.35565777    -0.19860
F1610       F  0.87420825  0.69755178  0.30095992    -0.19920
F1611       F  0.90204161  0.73707271  0.34813079    -0.20240
F1612       F  0.86967397  0.68120314  0.36599969    -0.22910
C1613       C  0.02881121  0.36262664  0.64687250    -0.05750
C1614       C  0.99411099  0.38465983  0.63992505     0.00180
C1615       C  0.95671672  0.37331508  0.65609961    -0.08390
C1616       C  0.95557982  0.33904028  0.68000355    -0.05770
C1617       C  0.99016103  0.31565014  0.68500088     0.00160
C1618       C  0.02715306  0.32662412  0.66729392    -0.08300
C1619       C  0.06407169  0.29972416  0.66798427     0.62070
H1620       H  0.05674845  0.37278176  0.63389899     0.12770
H1621       H  0.92807136  0.33025857  0.69495223     0.12780
C1622       C  0.91881362  0.39730837  0.64796406     0.62310
F1623       F  0.09724348  0.31794973  0.65093372    -0.22860
F1624       F  0.05599431  0.26541875  0.64625150    -0.20190
F1625       F  0.07408577  0.28952681  0.70678030    -0.19860
F1626       F  0.91163114  0.39897343  0.60721358    -0.19920
F1627       F  0.92339921  0.43581813  0.66252001    -0.20240
F1628       F  0.88551509  0.38038305  0.66600094    -0.22910
C1629       C  0.96304545  0.65914166  0.62370549    -0.05750
C1630       C  0.00157001  0.64484347  0.61566678     0.00180
C1631       C  0.03467297  0.65420795  0.64014870    -0.08390
C1632       C  0.02779990  0.67864543  0.67318404    -0.05770
C1633       C  0.98884175  0.69142806  0.68226169     0.00160
C1634       C  0.95570755  0.68137275  0.65805196    -0.08300
C1635       C  0.91304868  0.69272400  0.66933265     0.62070
H1636       H  0.93841690  0.65042240  0.60428571     0.12770
H1637       H  0.05243158  0.68751729  0.69249760     0.12780
C1638       C  0.07635910  0.63776913  0.63166889     0.62310
F1639       F  0.88516400  0.67706087  0.64282658    -0.22860
F1640       F  0.90900686  0.73375079  0.66919746    -0.20190
F1641       F  0.90439210  0.67834621  0.70722572    -0.19860
F1642       F  0.08733545  0.64671472  0.59266790    -0.19920
F1643       F  0.07635693  0.59669787  0.63670883    -0.20240
F1644       F  0.10487487  0.65382511  0.65724595    -0.22910
C1645       C  0.98727550  0.36930530  0.17585256    -0.05750
C1646       C  0.00088949  0.36247199  0.13639889     0.00180
C1647       C  0.01419193  0.32244607  0.12715312    -0.08390
C1648       C  0.01605898  0.29301701  0.15770200    -0.05770
C1649       C  0.00236863  0.30042643  0.19650954     0.00160
C1650       C  0.98477501  0.33834029  0.20470840    -0.08300
C1651       C  0.96239815  0.34699518  0.24339841     0.62070
H1652       H  0.97793221  0.39898071  0.18451745     0.12770
H1653       H  0.02961509  0.26405334  0.15193074     0.12780
C1654       C  0.02719960  0.31011609  0.08554377     0.62310
F1655       F  0.92388432  0.35947135  0.23437381    -0.22860
F1656       F  0.98187566  0.37677556  0.26465025    -0.20190
F1657       F  0.95867036  0.31359385  0.26740745    -0.19860
F1658       F  0.05703765  0.33555702  0.07212132    -0.19920
F1659       F  0.99405628  0.31137681  0.06052565    -0.20240
F1660       F  0.04241956  0.27147210  0.08424561    -0.22910
C1661       C  0.97509769  0.19122447  0.32907567    -0.05750
C1662       C  0.00010530  0.18182074  0.29628399     0.00180
C1663       C  0.01867437  0.14377123  0.29534143    -0.08390
C1664       C  0.01534363  0.11830966  0.32899573    -0.05770
C1665       C  0.99464952  0.12995192  0.36416291     0.00160
C1666       C  0.97287577  0.16659714  0.36350565    -0.08300
C1667       C  0.94766216  0.18001896  0.39890766     0.62070
H1668       H  0.96016665  0.21997957  0.32914540     0.12770
H1669       H  0.03076946  0.08971041  0.32870714     0.12780
C1670       C  0.04277988  0.13092341  0.25896966     0.62310
F1671       F  0.92443944  0.21330760  0.38994157    -0.22860
F1672       F  0.97227038  0.18968947  0.43087172    -0.20190
F1673       F  0.92218085  0.14944734  0.40986141    -0.19860
F1674       F  0.07616905  0.15509786  0.25473041    -0.19920
F1675       F  0.01908129  0.13432355  0.22504126    -0.20240
F1676       F  0.05564095  0.09156284  0.26197749    -0.22910
C1677       C  0.06313904  0.35854683  0.36715818    -0.05750
C1678       C  0.02252641  0.35985556  0.37864173     0.00180
C1679       C  0.99514954  0.33109254  0.36507528    -0.08390
C1680       C  0.00937420  0.30165740  0.33924833    -0.05770
C1681       C  0.04935933  0.30136787  0.32554518     0.00160
C1682       C  0.07713029  0.32941549  0.34019819    -0.08300
C1683       C  0.12076622  0.32809635  0.32741873     0.62070
H1684       H  0.08344463  0.38100344  0.37880657     0.12770
H1685       H  0.98851556  0.28024516  0.32708203     0.12780
C1686       C  0.95081454  0.33337693  0.37557068     0.62310
F1687       F  0.14343356  0.35665284  0.34720615    -0.22860
F1688       F  0.12377190  0.33497282  0.28664114    -0.20190
F1689       F  0.13663297  0.29073750  0.33604182    -0.19860
F1690       F  0.93545401  0.36954014  0.36235378    -0.19920
F1691       F  0.94576611  0.33058106  0.41664360    -0.20240
F1692       F  0.92897770  0.30293049  0.35774618    -0.22910
loop_ 
_geom_bond_atom_site_label_1 
_geom_bond_atom_site_label_2 
_geom_bond_distance 
_geom_bond_site_symmetry_2 
_ccdc_geom_bond_type 
C1            C2   1.399       .  A
C1            C6   1.428       .  A
C1         C1649   1.499       .  S
C2            C3   1.392       .  A
C2            H7   1.085       .  S
C3            C4   1.388       .  A
C3         C1681   1.464       .  S
C4            C5   1.399       .  A
C4            H8   1.086       .  S
C5            C6   1.427       .  A
C5         C1662   1.494       .  S
C6            H9   1.082   1_455  S
O10          C21   1.287       .  A
O10         Eu46   2.427   1_455  S
O11          C22   1.283       .  A
O11         Eu45   2.402       .  S
O12          C23   1.305       .  A
O12         Eu18   2.542       .  S
O13          C24   1.308       .  A
O13         Eu18   2.561   1_455  S
O14          C24   1.281       .  A
O14         Eu48   2.418       .  S
O15          C23   1.287       .  A
O15         Eu47   2.453       .  S
O16          C22   1.285       .  A
O16         Eu18   2.419       .  S
O17          C21   1.288       .  A
O17         Eu18   2.436   1_455  S
Eu18         O28   2.355   1_655  S
Eu18         O20   2.380       .  S
Eu18         O19   2.356   1_655  S
Eu18         O26   2.367       .  S
O19         Eu48   2.353       .  S
O19         Eu45   2.363   1_455  S
O20         Eu46   2.357       .  S
O20         Eu47   2.353       .  S
C21        C1678   1.443       .  S
C22        C1601   1.432       .  S
C23        C1553   1.505       .  S
C24        C1534   1.510       .  S
H25          O26   0.965       .  S
O26         Eu47   2.334       .  S
O26         Eu45   2.355       .  S
H27          O28   0.965       .  S
O28         Eu46   2.369   1_455  S
O28         Eu48   2.332       .  S
O29          C52   1.281       .  A
O29         Eu45   2.399   1_455  S
O30          C53   1.286       .  A
O30         Eu46   2.418       .  S
O31          C54   1.273       .  A
O31         Eu47   2.373       .  S
O32          C55   1.284       .  A
O32         Eu48   2.437       .  S
O33          C56   1.290       .  A
O33         Eu48   2.453       .  S
O34          C57   1.274       .  A
O34         Eu47   2.394       .  S
O35          C58   1.299       .  A
O35         Eu49   2.514   1_655  S
O36          C59   1.304       .  A
O36         Eu49   2.542       .  S
O37          C58   1.289       .  A
O37         Eu47   2.448       .  S
O38          C59   1.284       .  A
O38         Eu48   2.434       .  S
O39          C54   1.314       .  A
O39         Eu45   2.593       .  S
O40          C57   1.308       .  A
O40         Eu46   2.559       .  S
O41          C56   1.298       .  A
O41         Eu46   2.503   1_455  S
O42          C55   1.308       .  A
O42         Eu45   2.555   1_455  S
O43          C52   1.282       .  A
O43         Eu49   2.397       .  S
O44          C53   1.282       .  A
O44         Eu49   2.405   1_655  S
Eu45         O63   2.376   1_655  S
Eu45         O51   2.344       .  S
Eu46         O50   2.366   1_655  S
Eu46         O61   2.335       .  S
Eu47         O61   2.316       .  S
Eu47         O51   2.346       .  S
Eu48         O50   2.345       .  S
Eu48         O63   2.342       .  S
Eu49         O50   2.345       .  S
Eu49         O61   2.355   1_455  S
Eu49         O63   2.350       .  S
Eu49         O51   2.357   1_455  S
C52        C1630   1.419       .  S
C53        C1614   1.427       .  S
C54        C1521   1.502       .  S
C55        C1473   1.522       .  S
C56        C1505   1.514       .  S
C57        C1486   1.512       .  S
C58        C1582   1.511       .  S
C59        C1566   1.500       .  S
H60          O61   0.964       .  S
H62          O63   0.966       .  S
C64          C65   1.392       .  A
C64          C69   1.436       .  A
C64        C1438   1.493       .  S
C65          C66   1.376       .  A
C65          H70   1.086       .  S
C66          C67   1.372       .  A
C66        C1633   1.432       .  S
C67          C68   1.386       .  A
C67          H71   1.088       .  S
C68          C69   1.435       .  A
C68        C1454   1.493       .  S
C69          H72   1.082       .  S
C73          C74   1.390   1_455  A
C73          C78   1.426       .  A
C73        C1406   1.487       .  S
C74          C75   1.379       .  A
C74          H79   1.087       .  S
C75          C76   1.378       .  A
C75        C1617   1.441       .  S
C76          C77   1.395   1_655  A
C76          H80   1.086       .  S
C77          C78   1.427       .  A
C77        C1422   1.485       .  S
C78          H81   1.082       .  S
C82          C83   1.390       .  A
C82          C87   1.441       .  A
C82        C1377   1.508       .  S
C83          C84   1.379       .  A
C83          H88   1.088       .  S
C84          C85   1.383       .  A
C84        C1598   1.445       .  S
C85          C86   1.391       .  A
C85          H89   1.085       .  S
C86          C87   1.442       .  A
C86        C1393   1.508       .  S
C87          H90   1.082   1_655  S
O91         C102   1.301       .  A
O91        Eu127   2.522       .  S
O92         C103   1.309   1_455  A
O92        Eu126   2.565   1_455  S
O93         C104   1.284       .  A
O93         Eu99   2.437   1_455  S
O94         C105   1.281   1_565  A
O94         Eu99   2.428   1_565  S
O95         C105   1.305       .  A
O95        Eu129   2.539       .  S
O96         C104   1.301       .  A
O96        Eu128   2.509       .  S
O97         C103   1.285       .  A
O97         Eu99   2.434   1_565  S
O98         C102   1.286       .  A
O98         Eu99   2.436       .  S
Eu99        O109   2.344       .  S
Eu99        O101   2.327   1_655  S
Eu99        O100   2.342   1_545  S
Eu99        O107   2.350   1_645  S
O100       Eu129   2.372   1_565  S
O100       Eu126   2.355       .  S
O101       Eu127   2.342   1_455  S
O101       Eu128   2.338       .  S
C102       C1665   1.506       .  S
C103       C1390   1.514       .  S
C104       C1281   1.504       .  S
C105       C1294   1.515       .  S
H106        O107   0.966       .  S
O107       Eu128   2.351   1_565  S
O107       Eu126   2.353   1_455  S
H108        O109   0.965       .  S
O109       Eu127   2.357       .  S
O109       Eu129   2.358       .  S
O110        C133   1.307       .  A
O110       Eu126   2.555       .  S
O111        C134   1.305       .  A
O111       Eu127   2.541   1_455  S
O112        C135   1.286       .  A
O112       Eu128   2.418   1_565  S
O113        C136   1.285       .  A
O113       Eu129   2.423   1_565  S
O114        C137   1.284       .  A
O114       Eu129   2.418       .  S
O115        C138   1.285       .  A
O115       Eu128   2.406       .  S
O116        C139   1.286       .  A
O116       Eu130   2.431   1_565  S
O117        C140   1.283       .  A
O117       Eu130   2.430   1_655  S
O118        C139   1.300       .  A
O118       Eu128   2.515   1_565  S
O119        C140   1.309       .  A
O119       Eu129   2.568       .  S
O120        C135   1.283       .  A
O120       Eu126   2.404   1_455  S
O121        C138   1.284       .  A
O121       Eu127   2.417   1_455  S
O122        C137   1.286       .  A
O122       Eu127   2.423       .  S
O123        C136   1.277       .  A
O123       Eu126   2.360       .  S
O124        C133   1.283       .  A
O124       Eu130   2.424   1_665  S
O125        C134   1.280       .  A
O125       Eu130   2.406       .  S
Eu126       O144   2.374       .  S
Eu126       O132   2.337   1_655  S
Eu127       O131   2.356       .  S
Eu127       O142   2.368   1_655  S
Eu128       O142   2.360       .  S
Eu128       O132   2.336   1_545  S
Eu129       O131   2.359       .  S
Eu129       O144   2.360   1_545  S
Eu130       O131   2.351   1_455  S
Eu130       O142   2.355       .  S
Eu130       O144   2.347   1_445  S
Eu130       O132   2.333   1_545  S
C133       C1457   1.499       .  S
C134       C1425   1.485       .  S
C135       C1310   1.443       .  S
C136       C1326   1.423       .  S
C137       C1342   1.437       .  S
C138       C1358   1.440       .  S
C139       C1262   1.504       .  S
C140       C1246   1.518       .  S
H141        O142   0.966       .  S
H143        O144   0.966       .  S
C145        C146   1.399       .  A
C145        C150   1.427       .  A
C145       C1502   1.500       .  S
C146        C147   1.383       .  A
C146        H151   1.085       .  S
C147        C148   1.377       .  A
C147       C1361   1.459       .  S
C148        C149   1.399       .  A
C148        H152   1.085       .  S
C149        C150   1.427       .  A
C149       C1230   1.493       .  S
C150        H153   1.079       .  S
C154        C155   1.395       .  A
C154        C159   1.430       .  A
C154       C1489   1.495       .  S
C155        C156   1.385       .  A
C155        H160   1.086       .  S
C156        C157   1.385       .  A
C156       C1345   1.451       .  S
C157        C158   1.395       .  A
C157        H161   1.086       .  S
C158        C159   1.430       .  A
C158       C1217   1.497       .  S
C159        H162   1.082       .  S
C163        C164   1.444       .  A
C163        C168   1.402       .  A
C163       C1198   1.540       .  S
C164        C165   1.434       .  A
C164        H169   1.073       .  S
C165        C166   1.383       .  A
C165       C1518   1.485       .  S
C166        C167   1.363       .  A
C166        H170   1.086       .  S
C167        C168   1.390       .  A
C167       C1329   1.436       .  S
C168        H171   1.085       .  S
C172        C173   1.434       .  A
C172        C177   1.395       .  A
C172       C1182   1.503       .  S
C173        C174   1.433       .  A
C173        H178   1.082       .  S
C174        C175   1.393       .  A
C174       C1470   1.503       .  S
C175        C176   1.389       .  A
C175        H179   1.085       .  S
C176        C177   1.387       .  A
C176       C1313   1.461       .  S
C177        H180   1.087       .  S
C181        C182   1.422       .  A
C181        C186   1.413       .  A
C181       C1153   1.510       .  S
C182        C183   1.421       .  A
C182        H187   1.081   1_545  S
C183        C184   1.397       .  A
C183       C1297   1.490       .  S
C184        C185   1.393       .  A
C184        H188   1.080       .  S
C185        C186   1.405       .  A
C185       C1169   1.501       .  S
C186        H189   1.084       .  S
O190        C201   1.308       .  A
O190       Eu226   2.557       .  S
O191        C202   1.308       .  A
O191       Eu225   2.557       .  S
O192        C203   1.283       .  A
O192       Eu198   2.435       .  S
O193        C204   1.292       .  A
O193       Eu198   2.472       .  S
O194        C204   1.303       .  A
O194       Eu228   2.528       .  S
O195        C203   1.306       .  A
O195       Eu227   2.540       .  S
O196        C202   1.282       .  A
O196       Eu198   2.431       .  S
O197        C201   1.279       .  A
O197       Eu198   2.404       .  S
Eu198       O208   2.374       .  S
Eu198       O200   2.340       .  S
Eu198       O199   2.318       .  S
Eu198       O206   2.366       .  S
O199       Eu228   2.354       .  S
O199       Eu225   2.350       .  S
O200       Eu226   2.328       .  S
O200       Eu227   2.343       .  S
C201       C1233   1.496       .  S
C202       C1214   1.520       .  S
C203       C1070   1.510       .  S
C204       C1038   1.508       .  S
H205        O206   0.965       .  S
O206       Eu227   2.364       .  S
O206       Eu225   2.347       .  S
H207        O208   0.966       .  S
O208       Eu226   2.379       .  S
O208       Eu228   2.381       .  S
O209        C232   1.301       .  A
O209       Eu225   2.524   1_565  S
O210        C233   1.308       .  A
O210       Eu226   2.556   1_565  S
O211        C234   1.281       .  A
O211       Eu227   2.402   1_565  S
O212        C235   1.291       .  A
O212       Eu228   2.457       .  S
O213        C236   1.298       .  A
O213       Eu228   2.491   1_565  S
O214        C237   1.278       .  A
O214       Eu227   2.404       .  S
O215        C238   1.281       .  A
O215       Eu229   2.418       .  S
O216        C239   1.283       .  A
O216       Eu229   2.418       .  S
O217        C238   1.305       .  A
O217       Eu227   2.545   1_565  S
O218        C239   1.307       .  A
O218       Eu228   2.549   1_565  S
O219        C234   1.287       .  A
O219       Eu225   2.418   1_565  S
O220        C237   1.293       .  A
O220       Eu226   2.459       .  S
O221        C236   1.277       .  A
O221       Eu226   2.393   1_565  S
O222        C235   1.283       .  A
O222       Eu225   2.409       .  S
O223        C232   1.289       .  A
O223       Eu229   2.457       .  S
O224        C233   1.282       .  A
O224       Eu229   2.424       .  S
Eu225       O243   2.379   1_545  S
Eu225       O231   2.346   1_545  S
Eu226       O230   2.345   1_545  S
Eu226       O241   2.364   1_545  S
Eu227       O241   2.351   1_545  S
Eu227       O231   2.352   1_545  S
Eu228       O230   2.330   1_545  S
Eu228       O243   2.375   1_545  S
Eu229       O230   2.323       .  S
Eu229       O241   2.381       .  S
Eu229       O243   2.362       .  S
Eu229       O231   2.326       .  S
C232       C1201   1.526       .  S
C233       C1185   1.504       .  S
C234       C1118   1.450       .  S
C235       C1166   1.468       .  S
C236       C1105   1.489       .  S
C237       C1137   1.486       .  S
C238       C1086   1.502       .  S
C239       C1057   1.507       .  S
H240        O241   0.966       .  S
H242        O243   0.966       .  S
C244        C245   1.403       .  A
C244        C249   1.420   1_545  A
C244       C1025   1.495   1_545  S
C245        C246   1.404       .  A
C245        H250   1.081       .  S
C246        C247   1.396       .  A
C246       C1134   1.504       .  S
C247        C248   1.394   1_545  A
C247        H251   1.073       .  S
C248        C249   1.417       .  A
C248       C1265   1.489       .  S
C249        H252   1.082       .  S
C253        C254   1.434       .  A
C253        C258   1.392   1_545  A
C253       C1009   1.503       .  S
C254        C255   1.435       .  A
C254        H259   1.082       .  S
C255        C256   1.396   1_545  A
C255       C1249   1.503       .  S
C256        C257   1.383       .  A
C256        H260   1.084       .  S
C257        C258   1.387       .  A
C257       C1121   1.462       .  S
C258        H261   1.085       .  S
C262        C263   1.415   1_565  A
C262        C267   1.401       .  A
C262        C990   1.492   1_565  S
C263        C264   1.416   1_545  A
C263        H268   1.083       .  S
C264        C265   1.400       .  A
C264       C1278   1.489   1_565  S
C265        C266   1.402       .  A
C265        H269   1.083       .  S
C266        C267   1.397       .  A
C266       C1102   1.502       .  S
C267        H270   1.076       .  S
O271        C282   1.299   1_565  A
O271       Eu307   2.507       .  S
O272        C283   1.304       .  A
O272       Eu306   2.539       .  S
O273        C284   1.289       .  A
O273       Eu279   2.452   1_565  S
O274        C285   1.291       .  A
O274       Eu279   2.460       .  S
O275        C285   1.301       .  A
O275       Eu309   2.525       .  S
O276        C284   1.303       .  A
O276       Eu308   2.526       .  S
O277        C283   1.285       .  A
O277       Eu279   2.442   1_556  S
O278        C282   1.283       .  A
O278       Eu279   2.421       .  S
Eu279       O289   2.335       .  S
Eu279       O281   2.365   1_545  S
Eu279       O280   2.347   1_554  S
Eu279       O287   2.339   1_544  S
O280       Eu309   2.361   1_556  S
O280       Eu306   2.349       .  S
O281       Eu307   2.348       .  S
O281       Eu308   2.358       .  S
C282       C1150   1.504       .  S
C283       C1006   1.514       .  S
C284        C897   1.515       .  S
C285        C865   1.525       .  S
H286        O287   0.965       .  S
O287       Eu308   2.380   1_556  S
O287       Eu306   2.366   1_565  S
H288        O289   0.964       .  S
O289       Eu307   2.329   1_545  S
O289       Eu309   2.349       .  S
O290        C313   1.307       .  A
O290       Eu306   2.544   1_565  S
O291        C314   1.297       .  A
O291       Eu307   2.485   1_545  S
O292        C315   1.288       .  A
O292       Eu308   2.435   1_556  S
O293        C316   1.277       .  A
O293       Eu309   2.370   1_556  S
O294        C317   1.284       .  A
O294       Eu309   2.411       .  S
O295        C318   1.291       .  A
O295       Eu308   2.456       .  S
O296        C319   1.284       .  A
O296       Eu310   2.435       .  S
O297        C320   1.284       .  A
O297       Eu310   2.427   1_545  S
O298        C319   1.305   1_556  A
O298       Eu308   2.540   1_556  S
O299        C320   1.305       .  A
O299       Eu309   2.542       .  S
O300        C315   1.281       .  A
O300       Eu306   2.398   1_565  S
O301        C318   1.283       .  A
O301       Eu307   2.403       .  S
O302        C317   1.283       .  A
O302       Eu307   2.413   1_545  S
O303        C316   1.288       .  A
O303       Eu306   2.437       .  S
O304        C313   1.282       .  A
O304       Eu310   2.430   1_556  S
O305        C314   1.290       .  A
O305       Eu310   2.470   1_545  S
Eu306       O324   2.354       .  S
Eu306       O312   2.356   1_545  S
Eu307       O311   2.349   1_565  S
Eu307       O322   2.355       .  S
Eu308       O322   2.364       .  S
Eu308       O312   2.358   1_554  S
Eu309       O311   2.331       .  S
Eu309       O324   2.359   1_554  S
Eu310       O311   2.345   1_565  S
Eu310       O322   2.336       .  S
Eu310       O324   2.350   1_564  S
Eu310       O312   2.349   1_554  S
C313       C1022   1.518       .  S
C314        C993   1.513       .  S
C315        C942   1.441       .  S
C316        C929   1.424       .  S
C317        C977   1.431       .  S
C318        C961   1.448       .  S
C319        C881   1.515       .  S
C320        C913   1.494       .  S
H321        O322   0.965       .  S
H323        O324   0.964       .  S
C325        C326   1.394       .  A
C325        C330   1.438       .  A
C325       C1041   1.509       .  S
C326        C327   1.379       .  A
C326        H331   1.087       .  S
C327        C328   1.381       .  A
C327        C974   1.446       .  S
C328        C329   1.395       .  A
C328        H332   1.086       .  S
C329        C330   1.439       .  A
C329        C846   1.503       .  S
C330        H333   1.082       .  S
C334        C335   1.399       .  A
C334        C339   1.426       .  A
C334       C1054   1.491       .  S
C335        C336   1.388       .  A
C335        H340   1.086       .  S
C336        C337   1.389       .  A
C336        C958   1.462       .  S
C337        C338   1.396       .  A
C337        H341   1.086       .  S
C338        C339   1.424       .  A
C338        C830   1.491       .  S
C339        H342   1.082       .  S
C343        C344   1.395       .  A
C343        C348   1.427       .  A
C343       C1089   1.486       .  S
C344        C345   1.384       .  A
C344        H349   1.087       .  S
C345        C346   1.381       .  A
C345        C945   1.453       .  S
C346        C347   1.393       .  A
C346        H350   1.085       .  S
C347        C348   1.426       .  A
C347        C814   1.492       .  S
C348        H351   1.082       .  S
C352        C353   1.392       .  A
C352        C357   1.442       .  A
C352       C1073   1.521       .  S
C353        C354   1.383       .  A
C353        H358   1.083       .  S
C354        C355   1.365       .  A
C354        C926   1.432       .  S
C355        C356   1.390       .  A
C355        H359   1.088       .  S
C356        C357   1.442       .  A
C356        C798   1.495       .  S
C357        H360   1.082       .  S
O361        C372   1.306   1_455  A
O361       Eu397   2.549       .  S
O362        C373   1.303       .  A
O362       Eu396   2.529       .  S
O363        C374   1.283       .  A
O363       Eu369   2.414       .  S
O364        C375   1.280       .  A
O364       Eu369   2.424   1_456  S
O365        C375   1.307       .  A
O365       Eu399   2.548       .  S
O366        C374   1.307       .  A
O366       Eu398   2.558       .  S
O367        C373   1.282       .  A
O367       Eu369   2.418   1_556  S
O368        C372   1.286       .  A
O368       Eu369   2.455       .  S
Eu369       O379   2.315   1_655  S
Eu369       O371   2.333       .  S
Eu369       O370   2.343   1_654  S
Eu369       O377   2.338   1_554  S
O370       Eu399   2.329       .  S
O370       Eu396   2.352   1_455  S
O371       Eu397   2.364   1_655  S
O371       Eu398   2.365       .  S
C372       C1646   1.534   1_655  S
C373       C1409   1.494   1_655  S
C374        C689   1.510       .  S
C375        C718   1.516       .  S
H376        O377   0.965       .  S
O377       Eu398   2.349   1_556  S
O377       Eu396   2.373       .  S
H378        O379   0.964       .  S
O379       Eu397   2.366       .  S
O379       Eu399   2.353   1_554  S
O380        C403   1.309       .  A
O380       Eu396   2.563       .  S
O381        C404   1.309       .  A
O381       Eu397   2.567       .  S
O382        C405   1.295       .  A
O382       Eu398   2.487   1_556  S
O383        C406   1.284       .  A
O383       Eu399   2.416       .  S
O384        C407   1.287       .  A
O384       Eu399   2.416   1_554  S
O385        C408   1.283       .  A
O385       Eu398   2.394       .  S
O386        C409   1.286       .  A
O386       Eu400   2.433   1_554  S
O387        C410   1.288       .  A
O387       Eu400   2.444   1_455  S
O388        C409   1.306       .  A
O388       Eu398   2.542       .  S
O389        C410   1.301       .  A
O389       Eu399   2.518       .  S
O390        C405   1.287       .  A
O390       Eu396   2.415       .  S
O391        C408   1.281       .  A
O391       Eu397   2.403   1_655  S
O392        C407   1.283       .  A
O392       Eu397   2.412       .  S
O393        C406   1.286       .  A
O393       Eu396   2.421   1_455  S
O394        C403   1.279       .  A
O394       Eu400   2.403       .  S
O395        C404   1.283   1_655  A
O395       Eu400   2.427   1_554  S
Eu396       O414   2.347   1_655  S
Eu396       O402   2.357       .  S
Eu397       O401   2.355       .  S
Eu397       O412   2.358   1_455  S
Eu398       O412   2.381       .  S
Eu398       O402   2.367   1_554  S
Eu399       O401   2.374   1_556  S
Eu399       O414   2.358       .  S
Eu400       O401   2.353   1_656  S
Eu400       O412   2.332   1_556  S
Eu400       O414   2.337   1_655  S
Eu400       O402   2.370       .  S
C403       C1441   1.496       .  S
C404       C1374   1.512       .  S
C405        C737   1.495       .  S
C406        C753   1.449       .  S
C407        C769   1.433       .  S
C408        C785   1.440       .  S
C409        C673   1.506       .  S
C410        C702   1.507       .  S
H411        O412   0.966       .  S
H413        O414   0.965       .  S
C415        C416   1.381       .  A
C415        C420   1.440       .  A
C415       C1550   1.500       .  S
C416        C417   1.373       .  A
C416        H421   1.086       .  S
C417        C418   1.361       .  A
C417        C782   1.433       .  S
C418        C419   1.389       .  A
C418        H422   1.079       .  S
C419        C420   1.443       .  A
C419        C654   1.500       .  S
C420        H423   1.082       .  S
C424        C425   1.390       .  A
C424        C429   1.434       .  A
C424       C1537   1.500       .  S
C425        C426   1.384       .  A
C425        H430   1.086       .  S
C426        C427   1.381       .  A
C426        C766   1.455       .  S
C427        C428   1.397       .  A
C427        H431   1.085       .  S
C428        C429   1.434       .  A
C428        C638   1.499       .  S
C429        H432   1.082       .  S
C433        C434   1.433       .  A
C433        C438   1.387       .  A
C433       C1569   1.493       .  S
C434        C435   1.435       .  A
C434        H439   1.081       .  S
C435        C436   1.404       .  A
C435        C622   1.511       .  S
C436        C437   1.388       .  A
C436        H440   1.086       .  S
C437        C438   1.376       .  A
C437        C750   1.455       .  S
C438        H441   1.084       .  S
C442        C443   1.396       .  A
C442        C447   1.418       .  A
C442       C1585   1.492       .  S
C443        C444   1.397       .  A
C443        H448   1.071       .  S
C444        C445   1.407       .  A
C444        C734   1.510       .  S
C445        C446   1.402       .  A
C445        H449   1.081       .  S
C446        C447   1.419       .  A
C446        C606   1.497       .  S
C447        H450   1.082       .  S
C451        C452   1.424   1_554  A
C451        C456   1.399       .  A
C451        C721   1.500   1_554  S
C452        C453   1.422       .  A
C452        H457   1.082       .  S
C453        C454   1.391   1_556  A
C453        C910   1.487       .  S
C454        C455   1.391       .  A
C454        H458   1.076   1_554  S
C455        C456   1.404       .  A
C455        C590   1.491       .  S
C456        H459   1.081       .  S
O460        C471   1.314       .  A
O460       Eu496   2.586   1_554  S
O461        C472   1.304       .  A
O461       Eu495   2.536       .  S
O462        C473   1.275       .  A
O462       Eu468   2.382       .  S
O463        C474   1.283       .  A
O463       Eu468   2.424       .  S
O464        C474   1.303       .  A
O464       Eu498   2.533       .  S
O465        C473   1.309       .  A
O465       Eu497   2.566   1_554  S
O466        C472   1.282       .  A
O466       Eu468   2.429       .  S
O467        C471   1.281       .  A
O467       Eu468   2.413       .  S
Eu468       O478   2.337       .  S
Eu468       O470   2.358       .  S
Eu468       O469   2.325       .  S
Eu468       O476   2.351       .  S
O469       Eu498   2.346       .  S
O469       Eu495   2.344       .  S
O470       Eu496   2.377   1_554  S
O470       Eu497   2.355   1_554  S
C471        C849   1.512       .  S
C472        C833   1.507       .  S
C473        C657   1.492       .  S
C474        C641   1.500       .  S
H475        O476   0.966       .  S
O476       Eu497   2.354   1_554  S
O476       Eu495   2.372       .  S
H477        O478   0.965       .  S
O478       Eu496   2.358   1_554  S
O478       Eu498   2.346       .  S
O479        C502   1.303       .  A
O479       Eu495   2.530   1_556  S
O480        C503   1.311       .  A
O480       Eu496   2.573       .  S
O481        C504   1.290       .  A
O481       Eu497   2.450       .  S
O482        C505   1.284       .  A
O482       Eu498   2.403       .  S
O483        C506   1.280       .  A
O483       Eu498   2.418       .  S
O484        C507   1.289       .  A
O484       Eu497   2.429       .  S
O485        C508   1.288       .  A
O485       Eu499   2.466       .  S
O486        C509   1.290       .  A
O486       Eu499   2.459       .  S
O487        C508   1.299       .  A
O487       Eu497   2.496       .  S
O488        C509   1.301       .  A
O488       Eu498   2.534   1_556  S
O489        C504   1.281       .  A
O489       Eu495   2.410   1_556  S
O490        C507   1.284       .  A
O490       Eu496   2.423       .  S
O491        C506   1.287   1_556  A
O491       Eu496   2.429       .  S
O492        C505   1.287       .  A
O492       Eu495   2.426       .  S
O493        C502   1.281       .  A
O493       Eu499   2.413       .  S
O494        C503   1.282       .  A
O494       Eu499   2.420       .  S
Eu495       O513   2.363   1_554  S
Eu495       O501   2.335   1_554  S
Eu496       O500   2.377       .  S
Eu496       O511   2.356       .  S
Eu497       O511   2.364       .  S
Eu497       O501   2.356       .  S
Eu498       O500   2.360   1_554  S
Eu498       O513   2.355   1_554  S
Eu499       O500   2.361       .  S
Eu499       O511   2.337       .  S
Eu499       O513   2.347       .  S
Eu499       O501   2.338       .  S
C502        C817   1.484       .  S
C503        C801   1.504       .  S
C504        C577   1.467       .  S
C505        C558   1.445       .  S
C506        C593   1.478       .  S
C507        C542   1.471       .  S
C508        C609   1.516       .  S
C509        C625   1.529       .  S
H510        O511   0.963       .  S
H512        O513   0.966       .  S
C514        C515   1.426   1_556  A
C514        C519   1.399       .  A
C514        C894   1.497   1_556  S
C515        C516   1.424   1_554  A
C515        H520   1.082       .  S
C516        C517   1.395       .  A
C516        C670   1.494   1_556  S
C517        C518   1.393       .  A
C517        H521   1.081       .  S
C518        C519   1.394       .  A
C518        C574   1.483       .  S
C519        H522   1.086       .  S
C523        C524   1.425   1_554  A
C523        C528   1.392       .  A
C523        C878   1.493   1_554  S
C524        C525   1.426   1_556  A
C524        H529   1.082       .  S
C525        C526   1.399       .  A
C525        C705   1.494   1_554  S
C526        C527   1.393       .  A
C526        H530   1.086       .  S
C527        C528   1.392       .  A
C527        C561   1.474       .  S
C528        H531   1.083       .  S
C532        C533   1.432       .  A
C532        C537   1.398   1_554  A
C532        C862   1.513       .  S
C533        C534   1.431       .  A
C533        H538   1.081       .  S
C534        C535   1.399   1_554  A
C534        C686   1.499       .  S
C535        C536   1.379       .  A
C535        H539   1.080       .  S
C536        C537   1.395       .  A
C536        C545   1.481       .  S
C537        H540   1.082       .  S
C541        C542   1.397       .  A
C541        C546   1.387       .  A
C541        H548   1.081       .  S
C542        C543   1.421       .  A
C543        C544   1.400       .  A
C543        C550   1.519       .  S
C544        C545   1.404       .  A
C544        H549   1.083       .  S
C545        C546   1.430       .  A
C546        C547   1.523   1_556  S
C547        F551   1.386       .  S
C547        F552   1.377   1_554  S
C547        F553   1.378       .  S
C550        F554   1.373       .  S
C550        F555   1.383       .  S
C550        F556   1.382       .  S
C557        C558   1.400       .  A
C557        C562   1.394       .  A
C557        H564   1.086       .  S
C558        C559   1.409       .  A
C559        C560   1.389       .  A
C559        C566   1.523   1_554  S
C560        C561   1.409       .  A
C560        H565   1.081       .  S
C561        C562   1.413       .  A
C562        C563   1.510       .  S
C563        F567   1.384       .  S
C563        F568   1.384       .  S
C563        F569   1.384       .  S
C566        F570   1.383       .  S
C566        F571   1.383       .  S
C566        F572   1.384       .  S
C573        C574   1.406       .  A
C573        C578   1.393       .  A
C573        H580   1.078       .  S
C574        C575   1.415       .  A
C575        C576   1.403       .  A
C575        C582   1.515       .  S
C576        C577   1.405       .  A
C576        H581   1.084       .  S
C577        C578   1.417       .  A
C578        C579   1.525   1_556  S
C579        F583   1.380       .  S
C579        F584   1.383       .  S
C579        F585   1.383   1_554  S
C582        F586   1.381       .  S
C582        F587   1.384       .  S
C582        F588   1.383       .  S
C589        C590   1.404       .  A
C589        C594   1.388       .  A
C589        H596   1.072       .  S
C590        C591   1.425       .  A
C591        C592   1.398       .  A
C591        C598   1.523       .  S
C592        C593   1.403       .  A
C592        H597   1.081       .  S
C593        C594   1.422       .  A
C594        C595   1.522   1_554  S
C595        F599   1.383       .  S
C595        F600   1.377       .  S
C595        F601   1.383   1_556  S
C598        F602   1.379       .  S
C598        F603   1.379       .  S
C598        F604   1.384       .  S
C605        C606   1.400       .  A
C605        C610   1.419       .  A
C605        H612   1.083       .  S
C606        C607   1.420       .  A
C607        C608   1.411       .  A
C607        C614   1.523       .  S
C608        C609   1.409       .  A
C608        H613   1.082       .  S
C609        C610   1.436       .  A
C610        C611   1.524       .  S
C611        F615   1.385       .  S
C611        F616   1.383       .  S
C611        F617   1.380       .  S
C614        F618   1.376       .  S
C614        F619   1.382       .  S
C614        F620   1.383       .  S
C621        C622   1.405       .  A
C621        C626   1.409       .  A
C621        H628   1.083       .  S
C622        C623   1.413       .  A
C623        C624   1.426       .  A
C623        C630   1.513       .  S
C624        C625   1.425       .  A
C624        H629   1.083       .  S
C625        C626   1.430       .  A
C626        C627   1.519       .  S
C627        F631   1.385       .  S
C627        F632   1.372       .  S
C627        F633   1.382       .  S
C630        F634   1.383       .  S
C630        F635   1.383       .  S
C630        F636   1.384       .  S
C637        C638   1.411       .  A
C637        C642   1.419       .  A
C637        H644   1.080       .  S
C638        C639   1.416       .  A
C639        C640   1.415       .  A
C639        C646   1.515       .  S
C640        C641   1.411       .  A
C640        H645   1.083       .  S
C641        C642   1.417       .  A
C642        C643   1.519       .  S
C643        F647   1.383       .  S
C643        F648   1.376       .  S
C643        F649   1.384       .  S
C646        F650   1.383       .  S
C646        F651   1.383       .  S
C646        F652   1.385       .  S
C653        C654   1.407       .  A
C653        C658   1.419       .  A
C653        H660   1.083       .  S
C654        C655   1.431       .  A
C655        C656   1.410       .  A
C655        C662   1.519       .  S
C656        C657   1.401       .  A
C656        H661   1.085       .  S
C657        C658   1.423       .  A
C658        C659   1.518       .  S
C659        F663   1.384       .  S
C659        F664   1.382       .  S
C659        F665   1.383       .  S
C662        F666   1.384       .  S
C662        F667   1.383       .  S
C662        F668   1.381       .  S
C669        C670   1.406       .  A
C669        C674   1.416       .  A
C669        H676   1.083       .  S
C670        C671   1.415   1_554  A
C671        C672   1.415       .  A
C671        C678   1.516       .  S
C672        C673   1.411   1_556  A
C672        H677   1.083       .  S
C673        C674   1.418       .  A
C674        C675   1.509       .  S
C675        F679   1.384       .  S
C675        F680   1.384       .  S
C675        F681   1.382       .  S
C678        F682   1.383       .  S
C678        F683   1.383       .  S
C678        F684   1.384       .  S
C685        C686   1.413       .  A
C685        C690   1.426       .  A
C685        H692   1.082       .  S
C686        C687   1.410       .  A
C687        C688   1.406   1_554  A
C687        C694   1.513   1_554  S
C688        C689   1.409   1_556  A
C688        H693   1.075       .  S
C689        C690   1.421       .  A
C690        C691   1.514       .  S
C691        F695   1.384       .  S
C691        F696   1.382       .  S
C691        F697   1.380       .  S
C694        F698   1.382       .  S
C694        F699   1.384       .  S
C694        F700   1.383       .  S
C701        C702   1.414   1_554  A
C701        C706   1.412       .  A
C701        H708   1.083       .  S
C702        C703   1.422       .  A
C703        C704   1.418       .  A
C703        C710   1.519       .  S
C704        C705   1.410       .  A
C704        H709   1.083       .  S
C705        C706   1.411   1_556  A
C706        C707   1.516       .  S
C707        F711   1.384       .  S
C707        F712   1.383       .  S
C707        F713   1.383       .  S
C710        F714   1.383       .  S
C710        F715   1.383       .  S
C710        F716   1.384       .  S
C717        C718   1.402       .  A
C717        C722   1.408       .  A
C717        H724   1.082       .  S
C718        C719   1.438       .  A
C719        C720   1.418       .  A
C719        C726   1.519       .  S
C720        C721   1.396       .  A
C720        H725   1.083   1_556  S
C721        C722   1.424       .  A
C722        C723   1.516       .  S
C723        F727   1.383       .  S
C723        F728   1.382       .  S
C723        F729   1.377       .  S
C726        F730   1.381       .  S
C726        F731   1.369   1_556  S
C726        F732   1.385       .  S
C733        C734   1.406       .  A
C733        C738   1.413       .  A
C733        H740   1.081       .  S
C734        C735   1.413       .  A
C735        C736   1.391       .  A
C735        C742   1.514       .  S
C736        C737   1.410       .  A
C736        H741   1.084       .  S
C737        C738   1.428       .  A
C738        C739   1.515       .  S
C739        F743   1.384       .  S
C739        F744   1.383       .  S
C739        F745   1.381       .  S
C742        F746   1.384       .  S
C742        F747   1.383       .  S
C742        F748   1.385       .  S
C749        C750   1.402       .  A
C749        C754   1.390       .  A
C749        H756   1.080       .  S
C750        C751   1.410       .  A
C751        C752   1.395       .  A
C751        C758   1.520       .  S
C752        C753   1.402       .  A
C752        H757   1.081       .  S
C753        C754   1.410       .  A
C754        C755   1.521       .  S
C755        F759   1.385       .  S
C755        F760   1.384       .  S
C755        F761   1.383       .  S
C758        F762   1.380       .  S
C758        F763   1.383       .  S
C758        F764   1.384       .  S
C765        C766   1.399       .  A
C765        C770   1.396       .  A
C765        H772   1.084       .  S
C766        C767   1.423       .  A
C767        C768   1.380       .  A
C767        C774   1.513       .  S
C768        C769   1.384       .  A
C768        H773   1.085       .  S
C769        C770   1.413       .  A
C770        C771   1.515       .  S
C771        F775   1.385       .  S
C771        F776   1.382       .  S
C771        F777   1.382       .  S
C774        F778   1.375       .  S
C774        F779   1.380       .  S
C774        F780   1.386       .  S
C781        C782   1.388       .  A
C781        C786   1.377       .  A
C781        H788   1.085       .  S
C782        C783   1.416       .  A
C783        C784   1.387       .  A
C783        C790   1.526       .  S
C784        C785   1.398       .  A
C784        H789   1.078       .  S
C785        C786   1.412       .  A
C786        C787   1.508       .  S
C787        F791   1.380       .  S
C787        F792   1.383       .  S
C787        F793   1.376       .  S
C790        F794   1.383       .  S
C790        F795   1.381       .  S
C790        F796   1.381       .  S
C797        C798   1.406       .  A
C797        C802   1.415       .  A
C797        H804   1.085       .  S
C798        C799   1.422       .  A
C799        C800   1.419       .  A
C799        C806   1.516       .  S
C800        C801   1.407       .  A
C800        H805   1.083       .  S
C801        C802   1.431       .  A
C802        C803   1.520       .  S
C803        F807   1.383       .  S
C803        F808   1.383       .  S
C803        F809   1.379       .  S
C806        F810   1.383       .  S
C806        F811   1.383       .  S
C806        F812   1.384       .  S
C813        C814   1.410       .  A
C813        C818   1.406       .  A
C813        H820   1.084       .  S
C814        C815   1.417       .  A
C815        C816   1.418       .  A
C815        C822   1.515       .  S
C816        C817   1.408       .  A
C816        H821   1.083       .  S
C817        C818   1.414       .  A
C818        C819   1.518       .  S
C819        F823   1.384       .  S
C819        F824   1.380       .  S
C819        F825   1.382       .  S
C822        F826   1.383       .  S
C822        F827   1.383       .  S
C822        F828   1.384       .  S
C829        C830   1.397       .  A
C829        C834   1.410       .  A
C829        H836   1.083       .  S
C830        C831   1.420       .  A
C831        C832   1.417       .  A
C831        C838   1.515       .  S
C832        C833   1.405       .  A
C832        H837   1.082       .  S
C833        C834   1.432       .  A
C834        C835   1.519       .  S
C835        F839   1.385       .  S
C835        F840   1.382       .  S
C835        F841   1.375       .  S
C838        F842   1.383       .  S
C838        F843   1.380       .  S
C838        F844   1.385       .  S
C845        C846   1.409       .  A
C845        C850   1.418       .  A
C845        H852   1.083       .  S
C846        C847   1.414       .  A
C847        C848   1.422       .  A
C847        C854   1.513       .  S
C848        C849   1.415       .  A
C848        H853   1.083       .  S
C849        C850   1.417       .  A
C850        C851   1.507       .  S
C851        F855   1.384       .  S
C851        F856   1.378       .  S
C851        F857   1.384       .  S
C854        F858   1.383       .  S
C854        F859   1.383       .  S
C854        F860   1.383       .  S
C861        C862   1.413       .  A
C861        C866   1.418       .  A
C861        H868   1.083       .  S
C862        C863   1.415       .  A
C863        C864   1.418       .  A
C863        C870   1.518       .  S
C864        C865   1.420       .  A
C864        H869   1.081       .  S
C865        C866   1.427       .  A
C866        C867   1.521       .  S
C867        F871   1.385       .  S
C867        F872   1.378       .  S
C867        F873   1.384       .  S
C870        F874   1.382       .  S
C870        F875   1.383   1_554  S
C870        F876   1.384   1_554  S
C877        C878   1.395   1_554  A
C877        C882   1.411       .  A
C877        H884   1.083       .  S
C878        C879   1.425       .  A
C879        C880   1.417       .  A
C879        C886   1.516       .  S
C880        C881   1.407   1_556  A
C880        H885   1.084       .  S
C881        C882   1.434       .  A
C882        C883   1.516       .  S
C883        F887   1.385       .  S
C883        F888   1.379       .  S
C883        F889   1.384       .  S
C886        F890   1.383       .  S
C886        F891   1.383       .  S
C886        F892   1.384       .  S
C893        C894   1.408       .  A
C893        C898   1.415       .  A
C893        H900   1.083       .  S
C894        C895   1.408   1_554  A
C895        C896   1.417       .  A
C895        C902   1.513       .  S
C896        C897   1.417   1_556  A
C896        H901   1.079       .  S
C897        C898   1.422       .  A
C898        C899   1.515       .  S
C899        F903   1.384       .  S
C899        F904   1.383       .  S
C899        F905   1.378       .  S
C902        F906   1.383       .  S
C902        F907   1.383   1_556  S
C902        F908   1.383       .  S
C909        C910   1.400       .  A
C909        C914   1.415       .  A
C909        H916   1.083       .  S
C910        C911   1.421   1_556  A
C911        C912   1.412       .  A
C911        C918   1.521       .  S
C912        C913   1.402       .  A
C912        H917   1.083       .  S
C913        C914   1.426   1_554  A
C914        C915   1.514       .  S
C915        F919   1.384       .  S
C915        F920   1.377       .  S
C915        F921   1.376       .  S
C918        F922   1.382       .  S
C918        F923   1.381       .  S
C918        F924   1.385       .  S
C925        C926   1.395       .  A
C925        C930   1.385       .  A
C925        H932   1.084       .  S
C926        C927   1.403       .  A
C927        C928   1.388       .  A
C927        C934   1.515       .  S
C928        C929   1.398       .  A
C928        H933   1.085       .  S
C929        C930   1.407       .  A
C930        C931   1.511       .  S
C931        F935   1.385       .  S
C931        F936   1.383       .  S
C931        F937   1.381       .  S
C934        F938   1.381       .  S
C934        F939   1.376       .  S
C934        F940   1.385       .  S
C941        C942   1.402       .  A
C941        C946   1.398       .  A
C941        H948   1.084       .  S
C942        C943   1.409       .  A
C943        C944   1.384       .  A
C943        C950   1.520       .  S
C944        C945   1.399       .  A
C944        H949   1.080       .  S
C945        C946   1.411       .  A
C946        C947   1.519       .  S
C947        F951   1.385       .  S
C947        F952   1.383       .  S
C947        F953   1.381       .  S
C950        F954   1.382       .  S
C950        F955   1.384       .  S
C950        F956   1.383       .  S
C957        C958   1.403       .  A
C957        C962   1.385       .  A
C957        H964   1.080       .  S
C958        C959   1.405       .  A
C959        C960   1.403       .  A
C959        C966   1.514       .  S
C960        C961   1.407       .  A
C960        H965   1.084       .  S
C961        C962   1.408       .  A
C962        C963   1.518       .  S
C963        F967   1.384       .  S
C963        F968   1.378       .  S
C963        F969   1.378       .  S
C966        F970   1.383       .  S
C966        F971   1.379       .  S
C966        F972   1.385       .  S
C973        C974   1.404       .  A
C973        C978   1.386       .  A
C973        H980   1.081       .  S
C974        C975   1.403       .  A
C975        C976   1.395       .  A
C975        C982   1.515       .  S
C976        C977   1.403       .  A
C976        H981   1.084       .  S
C977        C978   1.399       .  A
C978        C979   1.516       .  S
C979        F983   1.385       .  S
C979        F984   1.381       .  S
C979        F985   1.383       .  S
C982        F986   1.383       .  S
C982        F987   1.383       .  S
C982        F988   1.385       .  S
C989        C990   1.397       .  A
C989        C994   1.414       .  A
C989        H996   1.083       .  S
C990        C991   1.418       .  A
C991        C992   1.402       .  A
C991        C998   1.518       .  S
C992        C993   1.408       .  A
C992        H997   1.082       .  S
C993        C994   1.434       .  A
C994        C995   1.512       .  S
C995        F999   1.385       .  S
C995       F1000   1.372   1_545  S
C995       F1001   1.379       .  S
C998       F1002   1.382       .  S
C998       F1003   1.383       .  S
C998       F1004   1.383       .  S
C1005      C1006   1.405       .  A
C1005      C1010   1.417       .  A
C1005      H1012   1.084       .  S
C1006      C1007   1.431       .  A
C1007      C1008   1.418       .  A
C1007      C1014   1.518   1_545  S
C1008      C1009   1.399       .  A
C1008      H1013   1.083   1_545  S
C1009      C1010   1.427       .  A
C1010      C1011   1.515       .  S
C1011      F1015   1.381       .  S
C1011      F1016   1.383       .  S
C1011      F1017   1.383       .  S
C1014      F1018   1.384       .  S
C1014      F1019   1.383       .  S
C1014      F1020   1.383       .  S
C1021      C1022   1.404       .  A
C1021      C1026   1.408       .  A
C1021      H1028   1.080       .  S
C1022      C1023   1.438       .  A
C1023      C1024   1.418       .  A
C1023      C1030   1.520       .  S
C1024      C1025   1.398       .  A
C1024      H1029   1.083       .  S
C1025      C1026   1.419       .  A
C1026      C1027   1.516       .  S
C1027      F1031   1.381       .  S
C1027      F1032   1.376       .  S
C1027      F1033   1.382       .  S
C1030      F1034   1.383       .  S
C1030      F1035   1.385       .  S
C1030      F1036   1.379       .  S
C1037      C1038   1.409       .  A
C1037      C1042   1.425       .  A
C1037      H1044   1.081       .  S
C1038      C1039   1.419       .  A
C1039      C1040   1.414       .  A
C1039      C1046   1.517       .  S
C1040      C1041   1.410       .  A
C1040      H1045   1.084       .  S
C1041      C1042   1.423       .  A
C1042      C1043   1.517       .  S
C1043      F1047   1.383       .  S
C1043      F1048   1.380       .  S
C1043      F1049   1.383       .  S
C1046      F1050   1.380       .  S
C1046      F1051   1.380       .  S
C1046      F1052   1.384       .  S
C1053      C1054   1.407       .  A
C1053      C1058   1.416       .  A
C1053      H1060   1.082       .  S
C1054      C1055   1.413       .  A
C1055      C1056   1.411       .  A
C1055      C1062   1.517       .  S
C1056      C1057   1.412       .  A
C1056      H1061   1.083       .  S
C1057      C1058   1.419       .  A
C1058      C1059   1.507       .  S
C1059      F1063   1.384       .  S
C1059      F1064   1.383       .  S
C1059      F1065   1.382       .  S
C1062      F1066   1.383       .  S
C1062      F1067   1.382       .  S
C1062      F1068   1.385       .  S
C1069      C1070   1.395       .  A
C1069      C1074   1.405       .  A
C1069      H1076   1.085       .  S
C1070      C1071   1.435       .  A
C1071      C1072   1.426       .  A
C1071      C1078   1.518       .  S
C1072      C1073   1.405       .  A
C1072      H1077   1.082       .  S
C1073      C1074   1.436       .  A
C1074      C1075   1.518       .  S
C1075      F1079   1.384       .  S
C1075      F1080   1.384       .  S
C1075      F1081   1.380       .  S
C1078      F1082   1.382       .  S
C1078      F1083   1.382       .  S
C1078      F1084   1.384       .  S
C1085      C1086   1.405       .  A
C1085      C1090   1.417       .  A
C1085      H1092   1.083       .  S
C1086      C1087   1.428       .  A
C1087      C1088   1.410       .  A
C1087      C1094   1.513       .  S
C1088      C1089   1.397       .  A
C1088      H1093   1.083       .  S
C1089      C1090   1.420       .  A
C1090      C1091   1.516       .  S
C1091      F1095   1.384       .  S
C1091      F1096   1.380       .  S
C1091      F1097   1.383       .  S
C1094      F1098   1.381       .  S
C1094      F1099   1.381       .  S
C1094      F1100   1.384       .  S
C1101      C1102   1.405       .  A
C1101      C1106   1.399       .  A
C1101      H1108   1.076       .  S
C1102      C1103   1.416       .  A
C1103      C1104   1.403       .  A
C1103      C1110   1.514       .  S
C1104      C1105   1.408       .  A
C1104      H1109   1.084       .  S
C1105      C1106   1.433       .  A
C1106      C1107   1.531       .  S
C1107      F1111   1.385       .  S
C1107      F1112   1.384   1_565  S
C1107      F1113   1.381       .  S
C1110      F1114   1.384       .  S
C1110      F1115   1.384       .  S
C1110      F1116   1.383       .  S
C1117      C1118   1.391   1_545  A
C1117      C1122   1.379       .  A
C1117      H1124   1.084       .  S
C1118      C1119   1.415       .  A
C1119      C1120   1.399       .  A
C1119      C1126   1.517       .  S
C1120      C1121   1.404       .  A
C1120      H1125   1.084       .  S
C1121      C1122   1.422   1_565  A
C1122      C1123   1.518       .  S
C1123      F1127   1.384       .  S
C1123      F1128   1.379       .  S
C1123      F1129   1.380       .  S
C1126      F1130   1.376       .  S
C1126      F1131   1.383       .  S
C1126      F1132   1.385       .  S
C1133      C1134   1.407       .  A
C1133      C1138   1.401       .  A
C1133      H1140   1.074       .  S
C1134      C1135   1.418       .  A
C1135      C1136   1.398       .  A
C1135      C1142   1.513       .  S
C1136      C1137   1.405       .  A
C1136      H1141   1.084       .  S
C1137      C1138   1.430       .  A
C1138      C1139   1.529       .  S
C1139      F1143   1.385       .  S
C1139      F1144   1.380       .  S
C1139      F1145   1.384   1_545  S
C1142      F1146   1.384       .  S
C1142      F1147   1.385       .  S
C1142      F1148   1.377       .  S
C1149      C1150   1.422   1_565  A
C1149      C1154   1.425   1_565  A
C1149      H1156   1.082       .  S
C1150      C1151   1.413       .  A
C1151      C1152   1.400       .  A
C1151      C1158   1.525       .  S
C1152      C1153   1.400       .  A
C1152      H1157   1.062       .  S
C1153      C1154   1.414       .  A
C1154      C1155   1.513       .  S
C1155      F1159   1.384       .  S
C1155      F1160   1.382   1_545  S
C1155      F1161   1.383       .  S
C1158      F1162   1.377   1_545  S
C1158      F1163   1.381       .  S
C1158      F1164   1.375       .  S
C1165      C1166   1.406       .  A
C1165      C1170   1.406       .  A
C1165      H1172   1.084       .  S
C1166      C1167   1.408       .  A
C1167      C1168   1.392       .  A
C1167      C1174   1.522       .  S
C1168      C1169   1.402       .  A
C1168      H1173   1.060       .  S
C1169      C1170   1.417       .  A
C1170      C1171   1.508       .  S
C1171      F1175   1.383       .  S
C1171      F1176   1.384       .  S
C1171      F1177   1.384       .  S
C1174      F1178   1.383       .  S
C1174      F1179   1.379   1_545  S
C1174      F1180   1.374   1_545  S
C1181      C1182   1.407       .  A
C1181      C1186   1.416       .  A
C1181      H1188   1.083       .  S
C1182      C1183   1.428       .  A
C1183      C1184   1.416       .  A
C1183      C1190   1.514       .  S
C1184      C1185   1.402       .  A
C1184      H1189   1.084       .  S
C1185      C1186   1.426       .  A
C1186      C1187   1.519       .  S
C1187      F1191   1.385       .  S
C1187      F1192   1.383       .  S
C1187      F1193   1.382       .  S
C1190      F1194   1.382       .  S
C1190      F1195   1.379       .  S
C1190      F1196   1.383       .  S
C1197      C1198   1.425       .  A
C1197      C1202   1.414       .  A
C1197      H1204   1.081       .  S
C1198      C1199   1.419       .  A
C1199      C1200   1.424       .  A
C1199      C1206   1.515       .  S
C1200      C1201   1.419       .  A
C1200      H1205   1.073       .  S
C1201      C1202   1.419       .  A
C1202      C1203   1.523       .  S
C1203      F1207   1.384       .  S
C1203      F1208   1.383       .  S
C1203      F1209   1.383       .  S
C1206      F1210   1.383       .  S
C1206      F1211   1.382       .  S
C1206      F1212   1.383       .  S
C1213      C1214   1.407       .  A
C1213      C1218   1.414       .  A
C1213      H1220   1.084       .  S
C1214      C1215   1.441       .  A
C1215      C1216   1.417       .  A
C1215      C1222   1.522       .  S
C1216      C1217   1.396       .  A
C1216      H1221   1.083       .  S
C1217      C1218   1.422       .  A
C1218      C1219   1.515       .  S
C1219      F1223   1.383       .  S
C1219      F1224   1.382       .  S
C1219      F1225   1.383       .  S
C1222      F1226   1.382       .  S
C1222      F1227   1.376       .  S
C1222      F1228   1.385       .  S
C1229      C1230   1.401       .  A
C1229      C1234   1.409       .  A
C1229      H1236   1.083       .  S
C1230      C1231   1.420       .  A
C1231      C1232   1.418       .  A
C1231      C1238   1.514       .  S
C1232      C1233   1.407       .  A
C1232      H1237   1.084       .  S
C1233      C1234   1.422       .  A
C1234      C1235   1.512       .  S
C1235      F1239   1.383       .  S
C1235      F1240   1.383       .  S
C1235      F1241   1.379       .  S
C1238      F1242   1.375       .  S
C1238      F1243   1.379       .  S
C1238      F1244   1.382       .  S
C1245      C1246   1.404       .  A
C1245      C1250   1.417       .  A
C1245      H1252   1.077       .  S
C1246      C1247   1.429   1_545  A
C1247      C1248   1.418       .  A
C1247      C1254   1.513       .  S
C1248      C1249   1.404   1_565  A
C1248      H1253   1.083       .  S
C1249      C1250   1.424       .  A
C1250      C1251   1.515       .  S
C1251      F1255   1.381       .  S
C1251      F1256   1.381       .  S
C1251      F1257   1.383       .  S
C1254      F1258   1.382       .  S
C1254      F1259   1.379       .  S
C1254      F1260   1.383       .  S
C1261      C1262   1.412   1_545  A
C1261      C1266   1.410       .  A
C1261      H1268   1.083       .  S
C1262      C1263   1.422       .  A
C1263      C1264   1.414       .  A
C1263      C1270   1.515       .  S
C1264      C1265   1.408       .  A
C1264      H1269   1.083       .  S
C1265      C1266   1.412   1_565  A
C1266      C1267   1.517       .  S
C1267      F1271   1.385       .  S
C1267      F1272   1.383       .  S
C1267      F1273   1.383   1_545  S
C1270      F1274   1.382       .  S
C1270      F1275   1.379       .  S
C1270      F1276   1.385       .  S
C1277      C1278   1.400   1_565  A
C1277      C1282   1.414       .  A
C1277      H1284   1.083       .  S
C1278      C1279   1.421       .  A
C1279      C1280   1.408       .  A
C1279      C1286   1.516       .  S
C1280      C1281   1.404       .  A
C1280      H1285   1.085       .  S
C1281      C1282   1.432   1_545  A
C1282      C1283   1.521       .  S
C1283      F1287   1.385       .  S
C1283      F1288   1.383   1_565  S
C1283      F1289   1.381       .  S
C1286      F1290   1.379       .  S
C1286      F1291   1.379       .  S
C1286      F1292   1.384       .  S
C1293      C1294   1.405   1_565  A
C1293      C1298   1.410       .  A
C1293      H1300   1.078       .  S
C1294      C1295   1.439       .  A
C1295      C1296   1.415       .  A
C1295      C1302   1.524       .  S
C1296      C1297   1.397       .  A
C1296      H1301   1.083       .  S
C1297      C1298   1.420   1_545  A
C1298      C1299   1.519       .  S
C1299      F1303   1.381       .  S
C1299      F1304   1.383       .  S
C1299      F1305   1.383       .  S
C1302      F1306   1.383       .  S
C1302      F1307   1.382       .  S
C1302      F1308   1.385       .  S
C1309      C1310   1.404       .  A
C1309      C1314   1.395       .  A
C1309      H1316   1.083       .  S
C1310      C1311   1.408       .  A
C1311      C1312   1.385       .  A
C1311      C1318   1.524       .  S
C1312      C1313   1.407       .  A
C1312      H1317   1.082       .  S
C1313      C1314   1.410       .  A
C1314      C1315   1.517       .  S
C1315      F1319   1.383       .  S
C1315      F1320   1.383       .  S
C1315      F1321   1.383       .  S
C1318      F1322   1.382       .  S
C1318      F1323   1.380       .  S
C1318      F1324   1.384       .  S
C1325      C1326   1.397       .  A
C1325      C1330   1.381       .  A
C1325      H1332   1.087       .  S
C1326      C1327   1.406       .  A
C1327      C1328   1.386       .  A
C1327      C1334   1.512       .  S
C1328      C1329   1.399       .  A
C1328      H1333   1.085       .  S
C1329      C1330   1.408       .  A
C1330      C1331   1.514       .  S
C1331      F1335   1.385       .  S
C1331      F1336   1.374       .  S
C1331      F1337   1.382       .  S
C1334      F1338   1.383       .  S
C1334      F1339   1.381       .  S
C1334      F1340   1.384       .  S
C1341      C1342   1.403       .  A
C1341      C1346   1.400       .  A
C1341      H1348   1.083       .  S
C1342      C1343   1.402       .  A
C1343      C1344   1.382       .  A
C1343      C1350   1.516       .  S
C1344      C1345   1.401       .  A
C1344      H1349   1.079       .  S
C1345      C1346   1.403       .  A
C1346      C1347   1.511       .  S
C1347      F1351   1.384       .  S
C1347      F1352   1.383       .  S
C1347      F1353   1.379       .  S
C1350      F1354   1.383       .  S
C1350      F1355   1.377       .  S
C1350      F1356   1.384       .  S
C1357      C1358   1.387       .  A
C1357      C1362   1.383       .  A
C1357      H1364   1.085       .  S
C1358      C1359   1.412       .  A
C1359      C1360   1.399       .  A
C1359      C1366   1.517       .  S
C1360      C1361   1.402       .  A
C1360      H1365   1.084       .  S
C1361      C1362   1.424       .  A
C1362      C1363   1.521       .  S
C1363      F1367   1.385       .  S
C1363      F1368   1.382       .  S
C1363      F1369   1.380       .  S
C1366      F1370   1.382       .  S
C1366      F1371   1.383       .  S
C1366      F1372   1.384       .  S
C1373      C1374   1.410   1_655  A
C1373      C1378   1.417       .  A
C1373      H1380   1.083       .  S
C1374      C1375   1.419       .  A
C1375      C1376   1.426       .  A
C1375      C1382   1.515       .  S
C1376      C1377   1.414   1_455  A
C1376      H1381   1.083       .  S
C1377      C1378   1.422       .  A
C1378      C1379   1.519       .  S
C1379      F1383   1.385       .  S
C1379      F1384   1.383       .  S
C1379      F1385   1.382       .  S
C1382      F1386   1.384       .  S
C1382      F1387   1.382       .  S
C1382      F1388   1.384       .  S
C1389      C1390   1.410       .  A
C1389      C1394   1.419       .  A
C1389      H1396   1.083       .  S
C1390      C1391   1.421   1_655  A
C1391      C1392   1.424       .  A
C1391      C1398   1.515       .  S
C1392      C1393   1.414   1_455  A
C1392      H1397   1.083       .  S
C1393      C1394   1.420       .  A
C1394      C1395   1.518       .  S
C1395      F1399   1.385       .  S
C1395      F1400   1.383       .  S
C1395      F1401   1.383       .  S
C1398      F1402   1.382       .  S
C1398      F1403   1.381       .  S
C1398      F1404   1.385       .  S
C1405      C1406   1.397   1_655  A
C1405      C1410   1.412       .  A
C1405      H1412   1.083       .  S
C1406      C1407   1.423       .  A
C1407      C1408   1.409       .  A
C1407      C1414   1.512       .  S
C1408      C1409   1.400       .  A
C1408      H1413   1.085       .  S
C1409      C1410   1.426   1_455  A
C1410      C1411   1.512       .  S
C1411      F1415   1.383       .  S
C1411      F1416   1.384       .  S
C1411      F1417   1.382       .  S
C1414      F1418   1.383       .  S
C1414      F1419   1.383       .  S
C1414      F1420   1.384       .  S
C1421      C1422   1.402   1_655  A
C1421      C1426   1.407       .  A
C1421      H1428   1.085       .  S
C1422      C1423   1.421       .  A
C1423      C1424   1.413       .  A
C1423      C1430   1.514       .  S
C1424      C1425   1.404       .  A
C1424      H1429   1.085       .  S
C1425      C1426   1.423   1_455  A
C1426      C1427   1.515       .  S
C1427      F1431   1.383       .  S
C1427      F1432   1.378       .  S
C1427      F1433   1.382       .  S
C1430      F1434   1.383       .  S
C1430      F1435   1.382       .  S
C1430      F1436   1.382       .  S
C1437      C1438   1.406   1_455  A
C1437      C1442   1.415       .  A
C1437      H1444   1.083       .  S
C1438      C1439   1.419       .  A
C1439      C1440   1.416       .  A
C1439      C1446   1.516       .  S
C1440      C1441   1.405       .  A
C1440      H1445   1.083       .  S
C1441      C1442   1.422   1_655  A
C1442      C1443   1.517       .  S
C1443      F1447   1.385       .  S
C1443      F1448   1.378       .  S
C1443      F1449   1.381       .  S
C1446      F1450   1.382       .  S
C1446      F1451   1.383       .  S
C1446      F1452   1.384       .  S
C1453      C1454   1.408   1_455  A
C1453      C1458   1.419       .  A
C1453      H1460   1.083       .  S
C1454      C1455   1.424       .  A
C1455      C1456   1.412       .  A
C1455      C1462   1.517       .  S
C1456      C1457   1.402       .  A
C1456      H1461   1.083       .  S
C1457      C1458   1.422   1_655  A
C1458      C1459   1.515       .  S
C1459      F1463   1.384       .  S
C1459      F1464   1.380       .  S
C1459      F1465   1.381       .  S
C1462      F1466   1.380       .  S
C1462      F1467   1.383       .  S
C1462      F1468   1.380       .  S
C1469      C1470   1.398       .  A
C1469      C1474   1.417       .  A
C1469      H1476   1.083       .  S
C1470      C1471   1.427       .  A
C1471      C1472   1.417       .  A
C1471      C1478   1.516       .  S
C1472      C1473   1.406       .  A
C1472      H1477   1.084       .  S
C1473      C1474   1.438       .  A
C1474      C1475   1.519       .  S
C1475      F1479   1.385       .  S
C1475      F1480   1.383       .  S
C1475      F1481   1.378       .  S
C1478      F1482   1.382       .  S
C1478      F1483   1.383       .  S
C1478      F1484   1.384       .  S
C1485      C1486   1.402       .  A
C1485      C1490   1.410       .  A
C1485      H1492   1.084       .  S
C1486      C1487   1.441       .  A
C1487      C1488   1.416       .  A
C1487      C1494   1.524       .  S
C1488      C1489   1.397       .  A
C1488      H1493   1.083       .  S
C1489      C1490   1.422       .  A
C1490      C1491   1.509       .  S
C1491      F1495   1.384       .  S
C1491      F1496   1.382       .  S
C1491      F1497   1.382       .  S
C1494      F1498   1.376       .  S
C1494      F1499   1.381       .  S
C1494      F1500   1.385       .  S
C1501      C1502   1.410       .  A
C1501      C1506   1.411       .  A
C1501      H1508   1.084       .  S
C1502      C1503   1.410       .  A
C1503      C1504   1.414       .  A
C1503      C1510   1.516       .  S
C1504      C1505   1.417       .  A
C1504      H1509   1.077       .  S
C1505      C1506   1.424       .  A
C1506      C1507   1.518       .  S
C1507      F1511   1.385       .  S
C1507      F1512   1.383       .  S
C1507      F1513   1.377       .  S
C1510      F1514   1.383       .  S
C1510      F1515   1.382       .  S
C1510      F1516   1.383       .  S
C1517      C1518   1.396       .  A
C1517      C1522   1.414       .  A
C1517      H1524   1.083       .  S
C1518      C1519   1.423       .  A
C1519      C1520   1.416       .  A
C1519      C1526   1.514       .  S
C1520      C1521   1.406       .  A
C1520      H1525   1.084       .  S
C1521      C1522   1.428       .  A
C1522      C1523   1.508       .  S
C1523      F1527   1.381       .  S
C1523      F1528   1.380       .  S
C1523      F1529   1.379       .  S
C1526      F1530   1.384       .  S
C1526      F1531   1.380       .  S
C1526      F1532   1.383       .  S
C1533      C1534   1.403       .  A
C1533      C1538   1.416       .  A
C1533      H1540   1.081       .  S
C1534      C1535   1.430       .  A
C1535      C1536   1.417       .  A
C1535      C1542   1.516       .  S
C1536      C1537   1.400       .  A
C1536      H1541   1.083       .  S
C1537      C1538   1.426       .  A
C1538      C1539   1.515       .  S
C1539      F1543   1.384       .  S
C1539      F1544   1.383       .  S
C1539      F1545   1.382       .  S
C1542      F1546   1.383       .  S
C1542      F1547   1.382       .  S
C1542      F1548   1.384       .  S
C1549      C1550   1.407       .  A
C1549      C1554   1.417       .  A
C1549      H1556   1.085       .  S
C1550      C1551   1.430       .  A
C1551      C1552   1.417       .  A
C1551      C1558   1.523       .  S
C1552      C1553   1.407       .  A
C1552      H1557   1.082       .  S
C1553      C1554   1.424       .  A
C1554      C1555   1.518       .  S
C1555      F1559   1.384       .  S
C1555      F1560   1.381       .  S
C1555      F1561   1.383       .  S
C1558      F1562   1.384       .  S
C1558      F1563   1.383       .  S
C1558      F1564   1.381       .  S
C1565      C1566   1.401       .  A
C1565      C1570   1.409       .  A
C1565      H1572   1.081       .  S
C1566      C1567   1.421       .  A
C1567      C1568   1.421       .  A
C1567      C1574   1.513       .  S
C1568      C1569   1.409       .  A
C1568      H1573   1.083       .  S
C1569      C1570   1.423       .  A
C1570      C1571   1.516       .  S
C1571      F1575   1.383       .  S
C1571      F1576   1.383       .  S
C1571      F1577   1.383       .  S
C1574      F1578   1.380       .  S
C1574      F1579   1.382       .  S
C1574      F1580   1.384       .  S
C1581      C1582   1.413       .  A
C1581      C1586   1.410       .  A
C1581      H1588   1.080       .  S
C1582      C1583   1.423       .  A
C1583      C1584   1.417       .  A
C1583      C1590   1.515       .  S
C1584      C1585   1.407       .  A
C1584      H1589   1.083       .  S
C1585      C1586   1.413       .  A
C1586      C1587   1.518       .  S
C1587      F1591   1.384       .  S
C1587      F1592   1.383       .  S
C1587      F1593   1.383       .  S
C1590      F1594   1.381       .  S
C1590      F1595   1.382       .  S
C1590      F1596   1.385       .  S
C1597      C1598   1.406       .  A
C1597      C1602   1.387   1_655  A
C1597      H1604   1.084   1_655  S
C1598      C1599   1.403       .  A
C1599      C1600   1.392       .  A
C1599      C1606   1.518       .  S
C1600      C1601   1.402       .  A
C1600      H1605   1.080       .  S
C1601      C1602   1.403   1_655  A
C1602      C1603   1.519       .  S
C1603      F1607   1.385       .  S
C1603      F1608   1.382       .  S
C1603      F1609   1.384       .  S
C1606      F1610   1.383       .  S
C1606      F1611   1.382       .  S
C1606      F1612   1.384       .  S
C1613      C1614   1.387   1_455  A
C1613      C1618   1.383       .  A
C1613      H1620   1.081       .  S
C1614      C1615   1.409       .  A
C1615      C1616   1.395       .  A
C1615      C1622   1.517       .  S
C1616      C1617   1.399       .  A
C1616      H1621   1.084       .  S
C1617      C1618   1.415   1_655  A
C1618      C1619   1.520       .  S
C1619      F1623   1.384       .  S
C1619      F1624   1.381       .  S
C1619      F1625   1.378       .  S
C1622      F1626   1.380       .  S
C1622      F1627   1.382       .  S
C1622      F1628   1.383       .  S
C1629      C1630   1.393   1_655  A
C1629      C1634   1.385       .  A
C1629      H1636   1.085       .  S
C1630      C1631   1.407       .  A
C1631      C1632   1.388       .  A
C1631      C1638   1.517       .  S
C1632      C1633   1.397   1_455  A
C1632      H1637   1.084       .  S
C1633      C1634   1.408       .  A
C1634      C1635   1.516       .  S
C1635      F1639   1.385       .  S
C1635      F1640   1.376       .  S
C1635      F1641   1.382       .  S
C1638      F1642   1.383       .  S
C1638      F1643   1.381       .  S
C1638      F1644   1.385       .  S
C1645      C1646   1.409   1_655  A
C1645      C1650   1.415       .  A
C1645      H1652   1.077       .  S
C1646      C1647   1.439       .  A
C1647      C1648   1.417       .  A
C1647      C1654   1.509       .  S
C1648      C1649   1.393       .  A
C1648      H1653   1.083       .  S
C1649      C1650   1.419   1_455  A
C1650      C1651   1.516       .  S
C1651      F1655   1.380       .  S
C1651      F1656   1.383       .  S
C1651      F1657   1.379       .  S
C1654      F1658   1.383       .  S
C1654      F1659   1.384   1_455  S
C1654      F1660   1.385       .  S
C1661      C1662   1.409   1_655  A
C1661      C1666   1.414       .  A
C1661      H1668   1.080       .  S
C1662      C1663   1.411       .  A
C1663      C1664   1.413       .  A
C1663      C1670   1.515       .  S
C1664      C1665   1.413   1_455  A
C1664      H1669   1.083       .  S
C1665      C1666   1.420       .  A
C1666      C1667   1.515       .  S
C1667      F1671   1.385       .  S
C1667      F1672   1.382       .  S
C1667      F1673   1.378       .  S
C1670      F1674   1.383       .  S
C1670      F1675   1.383       .  S
C1670      F1676   1.384       .  S
C1677      C1678   1.406       .  A
C1677      C1682   1.402       .  A
C1677      H1684   1.082       .  S
C1678      C1679   1.400   1_455  A
C1679      C1680   1.388   1_655  A
C1679      C1686   1.518       .  S
C1680      C1681   1.407       .  A
C1680      H1685   1.077   1_455  S
C1681      C1682   1.405       .  A
C1682      C1683   1.514       .  S
C1683      F1687   1.384       .  S
C1683      F1688   1.382       .  S
C1683      F1689   1.383       .  S
C1686      F1690   1.382       .  S
C1686      F1691   1.383       .  S
C1686      F1692   1.385       .  S
