geometry optimzed in LAMMPS
_audit_creation_date              2020-11-30 
_audit_creation_method            'lammps2cif' 
_symmetry_space_group_name_H-M    'P1' 
_symmetry_Int_Tables_number       1 
_symmetry_cell_setting            triclinic 
loop_ 
_symmetry_equiv_pos_as_xyz 
  x,y,z 
_cell_length_a                    33.169081929395894 
_cell_length_b                    33.49209615607983 
_cell_length_c                    33.489884475541515 
_cell_angle_alpha                 89.88905053842058 
_cell_angle_beta                  89.81329111037014 
_cell_angle_gamma                 90.45014156214093 
loop_ 
_atom_site_label 
_atom_site_type_symbol 
_atom_site_fract_x 
_atom_site_fract_y 
_atom_site_fract_z 
_atom_site_charge 
C1          C  0.00130424  0.26615060  0.21696844     0.02620
C2          C  0.01503522  0.29387762  0.24460920    -0.13530
C3          C  0.01732914  0.28442843  0.28450946     0.00120
C4          C  0.01023119  0.24620860  0.29807918    -0.12050
C5          C  0.99774906  0.21632337  0.27198628     0.02610
C6          C  0.99235219  0.22617491  0.23043019    -0.11470
H7          H  0.02019016  0.32472473  0.23562481     0.08210
H8          H  0.01200814  0.24032543  0.32994147     0.05740
H9          H  0.98138153  0.20392003  0.20968487     0.05580
O10         O  0.00531178  0.39501530  0.42932985    -0.80640
O11         O  0.00745292  0.61732747  0.44025829    -0.82190
O12         O  0.92933437  0.50812138  0.38823991    -0.79210
O13         O  0.06730351  0.50737232  0.38682851    -0.77600
O14         O  0.11521126  0.50184748  0.43509120    -0.79390
O15         O  0.88340003  0.50671037  0.43908990    -0.80320
O16         O  0.00405953  0.57090654  0.39004251    -0.81640
O17         O  0.00372771  0.44590955  0.38330469    -0.81930
Eu18       Eu  0.99928598  0.50662728  0.41970695     2.39200
O19         O  0.04189718  0.54445934  0.46154586    -0.89440
O20         O  0.95894813  0.46315363  0.45797348    -0.93050
C21         C  0.00655555  0.40931996  0.39369797     1.01640
C22         C  0.00733350  0.60638932  0.40362298     1.01460
C23         C  0.89238578  0.50780804  0.40184371     1.01410
C24         C  0.10456917  0.50442562  0.39817980     0.99260
H25         H  0.94308955  0.56420544  0.44581756     0.29010
O26         O  0.96000308  0.54685287  0.46146993    -1.01830
H27         H  0.05783229  0.44990108  0.44144446     0.29050
O28         O  0.04060515  0.46529367  0.45869894    -1.04370
O29         O  0.99893175  0.61291004  0.56879214    -0.81600
O30         O  0.99937793  0.38567480  0.55855624    -0.81140
O31         O  0.88720820  0.56764085  0.50736660    -0.79570
O32         O  0.11903722  0.56576158  0.50044099    -0.82910
O33         O  0.11726603  0.43968138  0.49570119    -0.80770
O34         O  0.88489233  0.44031310  0.49911438    -0.79420
O35         O  0.93137670  0.49702042  0.61360004    -0.80940
O36         O  0.06754006  0.50074287  0.61574321    -0.82860
O37         O  0.88466915  0.49954613  0.56377701    -0.79600
O38         O  0.11568871  0.50193535  0.56668746    -0.82280
O39         O  0.93451662  0.61742362  0.50528896    -0.78010
O40         O  0.93120795  0.39023059  0.49484480    -0.78040
O41         O  0.07068572  0.38986583  0.49298297    -0.77690
O42         O  0.07276067  0.61592547  0.50354600    -0.81190
O43         O  0.99674664  0.56266085  0.61549844    -0.80610
O44         O  0.99830195  0.43259708  0.60851782    -0.78940
Eu45       Eu  0.00276657  0.58436356  0.50356596     2.39770
Eu46       Eu  0.00100244  0.42140908  0.49639741     2.39570
Eu47       Eu  0.92067264  0.50358885  0.50091728     2.38400
Eu48       Eu  0.08221945  0.50273778  0.50092804     2.39880
Eu49       Eu  0.00055160  0.49937158  0.58159514     2.39790
O50         O  0.04172554  0.45980977  0.53991651    -0.93350
O51         O  0.96144259  0.54222478  0.54260956    -0.92250
C52         C  0.99648126  0.59940924  0.60454223     1.01820
C53         C  0.99774460  0.39666450  0.59516952     1.00530
C54         C  0.89731834  0.60475292  0.50725205     0.99920
C55         C  0.10972230  0.60289190  0.50188862     1.01940
C56         C  0.10799936  0.40263533  0.49248128     1.00860
C57         C  0.89430850  0.40329053  0.49681002     0.99700
C58         C  0.89433880  0.49745086  0.60076515     0.99760
C59         C  0.10480721  0.50186141  0.60377531     1.02380
H60         H  0.94302890  0.44349391  0.55439856     0.29750
O61         O  0.96055630  0.46063097  0.53879574    -1.05510
H62         H  0.05931286  0.55808692  0.56034639     0.31800
O63         O  0.04237663  0.54205863  0.54317901    -1.08080
C64         C  0.00015200  0.73338361  0.78966308     0.02620
C65         C  0.99006677  0.70535435  0.76080263    -0.13530
C66         C  0.98129647  0.71692284  0.72245148     0.00120
C67         C  0.97833324  0.75644665  0.71204802    -0.12050
C68         C  0.98760476  0.78643841  0.73920648     0.02610
C69         C  0.99925703  0.77508334  0.77906021    -0.11470
H70         H  0.99168048  0.67363655  0.76746438     0.08210
H71         H  0.97226252  0.76369868  0.68100671     0.05740
H72         H  0.00776636  0.79759657  0.80063459     0.05580
C73         C  0.99296820  0.27018126  0.78864066     0.02620
C74         C  0.98206222  0.29722713  0.75904068    -0.13530
C75         C  0.97965690  0.28568044  0.71968293     0.00120
C76         C  0.98386074  0.24639599  0.70871483    -0.12050
C77         C  0.99540290  0.21762522  0.73618656     0.02610
C78         C  0.00049570  0.22933034  0.77732242    -0.11470
H79         H  0.97876285  0.32868963  0.76610923     0.08210
H80         H  0.98169997  0.23882888  0.67723308     0.05740
H81         H  0.01021931  0.20782965  0.79935246     0.05580
C82         C  0.99972186  0.73789254  0.21742441     0.02620
C83         C  0.99700243  0.77993861  0.22662897    -0.13530
C84         C  0.00332191  0.79286706  0.26729932     0.00120
C85         C  0.01158846  0.76431504  0.29608620    -0.12050
C86         C  0.01235508  0.72463457  0.28668945     0.02610
C87         C  0.00765282  0.71143451  0.24825367    -0.11470
H88         H  0.99013191  0.80137079  0.20347827     0.08210
H89         H  0.01517145  0.77275590  0.32722995     0.05740
H90         H  0.00866847  0.67948835  0.24263498     0.05580
O91         O  0.99387732  0.11434874  0.43648646    -0.80640
O92         O  0.99820983  0.88727167  0.43375868    -0.82190
O93         O  0.05952842  0.00772013  0.38856350    -0.79210
O94         O  0.93337064  0.99771677  0.38960922    -0.77600
O95         O  0.88320929  0.99811492  0.43602297    -0.79390
O96         O  0.11100691  0.00566898  0.43322782    -0.80320
O97         O  0.99694259  0.93839675  0.38827413    -0.81640
O98         O  0.99437669  0.06434112  0.39011617    -0.81930
Eu99       Eu  0.99646068  0.00050737  0.42509201     2.39200
O100        O  0.95673831  0.95769839  0.46497490    -0.89440
O101        O  0.03710362  0.04273088  0.46355730    -0.93050
C102        C  0.99374765  0.10145996  0.39968129     1.01640
C103        C  0.99744772  0.90116203  0.39720526     1.01460
C104        C  0.09721411  0.00857303  0.39702618     1.01410
C105        C  0.89595759  0.99860658  0.39892676     0.99260
H106        H  0.05573598  0.94366099  0.44527132     0.29010
O107        O  0.03898290  0.95936524  0.46278484    -1.01830
H108        H  0.93708630  0.05460947  0.44936083     0.29050
O109        O  0.95425189  0.03857210  0.46609399    -1.04370
O110        O  0.99626612  0.88750557  0.57534539    -0.81600
O111        O  0.99549851  0.11323334  0.57415308    -0.81140
O112        O  0.11021764  0.93626510  0.50617312    -0.79570
O113        O  0.88292237  0.92945243  0.49987908    -0.82910
O114        O  0.88026389  0.05813676  0.50930083    -0.80770
O115        O  0.11210137  0.06731800  0.50496282    -0.79420
O116        O  0.06572827  0.00109898  0.61706821    -0.80940
O117        O  0.93743942  0.99320539  0.62046279    -0.82860
O118        O  0.11402830  0.00039650  0.56822459    -0.79600
O119        O  0.88512158  0.99050742  0.57713969    -0.82280
O120        O  0.06309454  0.88583280  0.50469439    -0.78010
O121        O  0.06096841  0.11236562  0.51024995    -0.78040
O122        O  0.92798827  0.10824203  0.50647639    -0.77690
O123        O  0.93372568  0.88430628  0.49860205    -0.81190
O124        O  0.00135651  0.93787140  0.62127179    -0.80610
O125        O  0.99723890  0.06296026  0.62036703    -0.78940
Eu126      Eu  0.99851863  0.91729696  0.50416319     2.39770
Eu127      Eu  0.99512764  0.08114113  0.50513093     2.39570
Eu128      Eu  0.07975373  0.00189203  0.50175814     2.38400
Eu129      Eu  0.91429901  0.99534373  0.50629949     2.39880
Eu130      Eu  0.99974750  0.99954771  0.58401272     2.39790
O131        O  0.95553680  0.03816941  0.54554943    -0.93350
O132        O  0.04000532  0.95980204  0.54268061    -0.92250
C133        C  0.99823831  0.90086697  0.61212240     1.01820
C134        C  0.99636825  0.10022605  0.61095451     1.00530
C135        C  0.09929163  0.89928126  0.50691820     0.99920
C136        C  0.89634861  0.89361598  0.49645466     1.01940
C137        C  0.89161622  0.09480279  0.50802213     1.00860
C138        C  0.09846032  0.10276945  0.51030962     0.99700
C139        C  0.10275340  0.00054194  0.60538513     0.99760
C140        C  0.89978650  0.98996626  0.61337727     1.02380
H141        H  0.05495600  0.05746446  0.56085673     0.29750
O142        O  0.03857856  0.04120164  0.54341422    -1.05510
H143        H  0.94201346  0.93948764  0.56256001     0.31800
O144        O  0.95799384  0.95681702  0.54562205    -1.08080
C145        C  0.22676159  0.28344442  0.51853654     0.02620
C146        C  0.20115604  0.26406124  0.54557534    -0.13530
C147        C  0.20348335  0.22298242  0.55036819     0.00120
C148        C  0.23838343  0.20378073  0.53697914    -0.12050
C149        C  0.27134694  0.22478516  0.52083417     0.02610
C150        C  0.26412407  0.26506927  0.50840904    -0.11470
H151        H  0.17540567  0.27991765  0.55691414     0.08210
H152        H  0.24024552  0.17156933  0.53895157     0.05740
H153        H  0.28615966  0.28188577  0.49147713     0.05580
C154        C  0.76651809  0.28846441  0.49326650     0.02620
C155        C  0.79279079  0.25623305  0.49407351    -0.13530
C156        C  0.77853239  0.21782330  0.49748380     0.00120
C157        C  0.73812954  0.20993725  0.50087228    -0.12050
C158        C  0.71052903  0.24079432  0.50406092     0.02610
C159        C  0.72433550  0.28111118  0.49933285    -0.11470
H160        H  0.82518876  0.26091726  0.49216919     0.08210
H161        H  0.72833820  0.17898522  0.50337566     0.05740
H162        H  0.70328911  0.30559478  0.50061947     0.05580
C163        C  0.73075076  0.78137213  0.50613330     0.02620
C164        C  0.75442369  0.80083087  0.47766279    -0.13530
C165        C  0.78664082  0.78198733  0.45811486     0.00120
C166        C  0.79131797  0.74130019  0.46485458    -0.12050
C167        C  0.77370839  0.72293352  0.49813739     0.02610
C168        C  0.74183877  0.74245857  0.51861645    -0.11470
H169        H  0.74815927  0.83200780  0.47291941     0.08210
H170        H  0.81297825  0.72469591  0.44786496     0.05740
H171        H  0.72656459  0.72808036  0.54342840     0.05580
C172        C  0.23667490  0.71998562  0.50799896     0.02620
C173        C  0.21057270  0.74992194  0.52010380    -0.13530
C174        C  0.22445112  0.78799960  0.52838925     0.00120
C175        C  0.26521837  0.79619746  0.52914337    -0.12050
C176        C  0.29291216  0.76831584  0.51513051     0.02610
C177        C  0.27876880  0.72922234  0.50435367    -0.11470
H178        H  0.17827548  0.74429202  0.52011917     0.08210
H179        H  0.27494246  0.82648979  0.53586968     0.05740
H180        H  0.29951351  0.70720055  0.49295422     0.05580
C181        C  0.73136737  0.01732875  0.21589914     0.02620
C182        C  0.76889336  0.00314829  0.23123043    -0.13530
C183        C  0.78101486  0.01456245  0.27057325     0.00120
C184        C  0.75554949  0.03891179  0.29289312    -0.12050
C185        C  0.71666497  0.04633164  0.28019095     0.02610
C186        C  0.70628094  0.03970034  0.24087046    -0.11470
H187        H  0.78734311  0.98320825  0.21370113     0.08210
H188        H  0.76315163  0.04548387  0.32373601     0.05740
H189        H  0.67570606  0.04638588  0.23163472     0.05580
O190        O  0.38669871  0.06688414  0.50268955    -0.80640
O191        O  0.61226146  0.08205377  0.50853236    -0.82190
O192        O  0.49681060  0.12094665  0.56292171    -0.79210
O193        O  0.49881067  0.11533320  0.43408817    -0.77600
O194        O  0.50398209  0.06791958  0.38523776    -0.79390
O195        O  0.49897402  0.07615986  0.61466524    -0.80320
O196        O  0.55860295  0.12406617  0.50302221    -0.81640
O197        O  0.43427441  0.11633469  0.50140950    -0.81930
Eu198      Eu  0.49866300  0.08331204  0.50060356     2.39200
O199        O  0.54415358  0.04517468  0.46360333    -0.89440
O200        O  0.45979976  0.04225956  0.54328706    -0.93050
C201        C  0.39751723  0.10451274  0.50265751     1.01640
C202        C  0.59641005  0.11761697  0.50638877     1.01460
C203        C  0.49764976  0.11261398  0.60041222     1.01410
C204        C  0.50095005  0.10482942  0.39707476     0.99260
H205        H  0.55564426  0.06626010  0.56053399     0.29010
O206        O  0.54088054  0.04757172  0.54413908    -1.01830
H207        H  0.44460443  0.05526829  0.44152024     0.29050
O208        O  0.46183219  0.04013413  0.45904077    -1.04370
O209        O  0.62366287  0.94320620  0.51085660    -0.81600
O210        O  0.39541979  0.92780838  0.49999623    -0.81140
O211        O  0.56785474  0.01133939  0.62066579    -0.79570
O212        O  0.57751075  0.01470228  0.39766546    -0.82910
O213        O  0.44318434  0.98604833  0.39221135    -0.80770
O214        O  0.43582152  0.99449855  0.61340625    -0.79420
O215        O  0.50844902  0.88886669  0.56729199    -0.80940
O216        O  0.51578483  0.88847703  0.44185185    -0.82860
O217        O  0.50627653  0.93526907  0.61722445    -0.79600
O218        O  0.51621079  0.93256767  0.39025156    -0.82280
O219        O  0.61502252  0.01593771  0.57211264    -0.78010
O220        O  0.38710702  0.99499940  0.56547460    -0.78040
O221        O  0.39137342  0.99323206  0.43677065    -0.77690
O222        O  0.62478196  0.01973185  0.44740833    -0.81190
O223        O  0.57547571  0.89424320  0.51132294    -0.80610
O224        O  0.44863457  0.88473328  0.50072657    -0.78940
Eu225      Eu  0.58680935  0.00986550  0.50698234     2.39770
Eu226      Eu  0.42208391  0.99935115  0.50173091     2.39570
Eu227      Eu  0.50280793  0.00523953  0.58605796     2.38400
Eu228      Eu  0.50855338  0.00156072  0.42138153     2.39880
Eu229      Eu  0.51012087  0.92485325  0.50459208     2.39790
O230        O  0.46797476  0.96178843  0.46333057    -0.93350
O231        O  0.54743724  0.96704115  0.54708904    -0.92250
C232        C  0.61241580  0.90572987  0.51219606     1.01820
C233        C  0.41067750  0.89198811  0.49977896     1.00530
C234        C  0.60458679  0.01608218  0.60872672     0.99920
C235        C  0.61356382  0.02088427  0.41098744     1.01940
C236        C  0.40555557  0.98655142  0.40171594     1.00860
C237        C  0.39901766  0.99109190  0.60173448     0.99700
C238        C  0.50744612  0.89836301  0.60435626     0.99760
C239        C  0.51742071  0.89619033  0.40432537     1.02380
H240        H  0.44972488  0.94391643  0.55909121     0.29750
O241        O  0.46555155  0.96257174  0.54346734    -1.05510
H242        H  0.57028050  0.94982663  0.44893505     0.31800
O243        O  0.55150620  0.96561466  0.46420576    -1.08080
C244        C  0.27147624  0.97119250  0.78201140     0.02620
C245        C  0.23535218  0.98670382  0.76523393    -0.13530
C246        C  0.22684805  0.97874527  0.72430472     0.00120
C247        C  0.25790794  0.96282148  0.70106020    -0.12050
C248        C  0.29134104  0.94455832  0.71831316     0.02610
C249        C  0.29409498  0.94416313  0.75968069    -0.11470
H250        H  0.21508787  0.00427298  0.78330300     0.08210
H251        H  0.25516511  0.96406364  0.66883813     0.05740
H252        H  0.31858669  0.92871988  0.77394082     0.05580
C253        C  0.73094906  0.00846898  0.78798696     0.02620
C254        C  0.77143532  0.99875225  0.77826209    -0.13530
C255        C  0.78747029  0.01321085  0.74148573     0.00120
C256        C  0.76586568  0.04222809  0.72084317    -0.12050
C257        C  0.72391892  0.04268586  0.72391107     0.02610
C258        C  0.70695114  0.02339050  0.75729728    -0.11470
H259        H  0.78960663  0.98078242  0.79799985     0.08210
H260        H  0.78177851  0.05946553  0.69890150     0.05740
H261        H  0.67464929  0.02139192  0.76129913     0.05580
C262        C  0.26389176  0.00719354  0.21680140     0.02620
C263        C  0.22707695  0.02039391  0.23411552    -0.13530
C264        C  0.21905081  0.01207506  0.27511628     0.00120
C265        C  0.24874500  0.99362041  0.29786413    -0.12050
C266        C  0.28518936  0.98213921  0.28113683     0.02610
C267        C  0.29083337  0.98529488  0.24013586    -0.11470
H268        H  0.20585231  0.03734229  0.21655562     0.08210
H269        H  0.24440183  0.99066532  0.32984828     0.05740
H270        H  0.31938036  0.97594025  0.22741124     0.05580
O271        O  0.56350991  0.00386557  0.12064458    -0.80640
O272        O  0.57187543  0.00245173  0.89518189    -0.82190
O273        O  0.61406192  0.93896194  0.01275602    -0.79210
O274        O  0.61025915  0.06900026  0.00990943    -0.77600
O275        O  0.56204425  0.11697294  0.00574058    -0.79390
O276        O  0.56749592  0.88931863  0.01430553    -0.80320
O277        O  0.61703113  0.00086517  0.94669929    -0.81640
O278        O  0.61163727  0.00384026  0.07144333    -0.81930
Eu279      Eu  0.57785564  0.00303553  0.00837623     2.39200
O280        O  0.53923611  0.04338507  0.96554222    -0.89440
O281        O  0.53714811  0.96216175  0.04954523    -0.93050
C282        C  0.60106135  0.00438418  0.10819674     1.01640
C283        C  0.60844432  0.00131870  0.90930498     1.01460
C284        C  0.60470849  0.90161116  0.01512295     1.01410
C285        C  0.59942372  0.10580134  0.00811517     0.99260
H286        H  0.55829342  0.94541904  0.95193147     0.29010
O287        O  0.53983309  0.96166875  0.96706412    -1.01830
H288        H  0.55100506  0.06116717  0.06401441     0.29050
O289        O  0.53515597  0.04376098  0.04716692    -1.04370
O290        O  0.43366203  0.99502629  0.88837042    -0.81600
O291        O  0.42164128  0.00683648  0.11445332    -0.81140
O292        O  0.50407546  0.88953681  0.94242175    -0.79570
O293        O  0.49401009  0.11545347  0.94146652    -0.82910
O294        O  0.48705232  0.11579227  0.06622417    -0.80770
O295        O  0.48720996  0.89161787  0.07400089    -0.79420
O296        O  0.38554910  0.93224737  0.00151631    -0.80940
O297        O  0.37828790  0.05958993  0.00035335    -0.82860
O298        O  0.43355098  0.88363623  0.00215259    -0.79600
O299        O  0.42403819  0.11088274  0.00200484    -0.82280
O300        O  0.50542033  0.93759540  0.89317905    -0.78010
O301        O  0.48460434  0.94071682  0.12168699    -0.78040
O302        O  0.48653683  0.06839390  0.11579163    -0.77690
O303        O  0.49790650  0.06756890  0.89267866    -0.81190
O304        O  0.38462796  0.99641473  0.93610272    -0.80610
O305        O  0.37801913  0.00303690  0.06217075    -0.78940
Eu306      Eu  0.50104807  0.00166970  0.92363338     2.39770
Eu307      Eu  0.49350058  0.00294990  0.08732317     2.39570
Eu308      Eu  0.49902335  0.92023135  0.00764786     2.38400
Eu309      Eu  0.49460441  0.08214777  0.00413007     2.39880
Eu310      Eu  0.41680517  0.99845098  0.00112834     2.39790
O311        O  0.45397009  0.04040056  0.04325343    -0.93350
O312        O  0.46034230  0.95910170  0.96335156    -0.92250
C313        C  0.39594027  0.99400938  0.89948762     1.01820
C314        C  0.38525648  0.00654484  0.09954592     1.00530
C315        C  0.50594667  0.90156455  0.90597284     0.99920
C316        C  0.49509393  0.10380519  0.90518702     1.01940
C317        C  0.48458638  0.10431820  0.10257324     1.00860
C318        C  0.48278098  0.90432122  0.11010004     0.99700
C319        C  0.39646551  0.89545875  0.00138765     0.99760
C320        C  0.38724198  0.09691789  0.00091721     1.02380
H321        H  0.43668622  0.94498111  0.06057844     0.29750
O322        O  0.45549697  0.96080987  0.04508657    -1.05510
H323        H  0.43958871  0.05624622  0.94455587     0.31800
O324        O  0.45682074  0.04068622  0.96165970    -1.08080
C325        C  0.49273665  0.23653192  0.28725954     0.02620
C326        C  0.47636999  0.21186790  0.25803748    -0.13530
C327        C  0.47527095  0.22369559  0.21875812     0.00120
C328        C  0.48535552  0.26188675  0.20744098    -0.12050
C329        C  0.50129844  0.28875976  0.23477224     0.02610
C330        C  0.50599943  0.27609253  0.27573224    -0.11470
H331        H  0.46894602  0.18092764  0.26492174     0.08210
H332        H  0.48399318  0.26964516  0.17593580     0.05740
H333        H  0.51971602  0.29583361  0.29740026     0.05580
C334        C  0.52061964  0.77181215  0.28970683     0.02620
C335        C  0.49264884  0.79548785  0.26972505    -0.13530
C336        C  0.48167679  0.78690774  0.23097329     0.00120
C337        C  0.49108327  0.75019107  0.21423002    -0.12050
C338        C  0.51929894  0.72496134  0.23198639     0.02610
C339        C  0.53479547  0.73606467  0.27057774    -0.11470
H340        H  0.48459543  0.82442103  0.28185174     0.08210
H341        H  0.48113505  0.74430704  0.18394173     0.05740
H342        H  0.55785587  0.71827175  0.28463825     0.05580
C343        C  0.50089783  0.77051706  0.71786848     0.02620
C344        C  0.51137255  0.79730332  0.74789234    -0.13530
C345        C  0.51291743  0.78521609  0.78706881     0.00120
C346        C  0.50806889  0.74603753  0.79778334    -0.12050
C347        C  0.50046394  0.71698001  0.76927029     0.02610
C348        C  0.49577322  0.72899115  0.72822159    -0.11470
H349        H  0.51517047  0.82888538  0.74125170     0.08210
H350        H  0.50921935  0.73825027  0.82930430     0.05740
H351        H  0.48817947  0.70722297  0.70558738     0.05580
C352        C  0.49589291  0.23761782  0.71738225     0.02620
C353        C  0.48777984  0.20996239  0.74748941    -0.13530
C354        C  0.48417454  0.22188812  0.78659545     0.00120
C355        C  0.48489098  0.26156754  0.79688372    -0.12050
C356        C  0.49194295  0.29103802  0.76841104     0.02610
C357        C  0.49822967  0.27928676  0.72759608    -0.11470
H358        H  0.48695670  0.17822078  0.74086027     0.08210
H359        H  0.48205205  0.26939350  0.82825232     0.05740
H360        H  0.50497035  0.30144378  0.70494361     0.05580
O361        O  0.00179174  0.43042290  0.11865922    -0.80640
O362        O  0.00053927  0.43411750  0.89079313    -0.82190
O363        O  0.93928711  0.38543577  0.00913456    -0.79210
O364        O  0.06355705  0.38465719  0.00440618    -0.77600
O365        O  0.11562734  0.42909629  0.00651859    -0.79390
O366        O  0.88843858  0.43053182  0.00601278    -0.80320
O367        O  0.00159972  0.38746770  0.94074151    -0.81640
O368        O  0.00063850  0.38513894  0.06755522    -0.81930
Eu369      Eu  0.00185511  0.42199742  0.00528019     2.39200
O370        O  0.04290219  0.46204999  0.96527165    -0.89440
O371        O  0.96162303  0.46124426  0.04682817    -0.93050
C372        C  0.00067402  0.39391936  0.10480738     1.01640
C373        C  0.00099536  0.39726651  0.90356958     1.01460
C374        C  0.90183162  0.39386486  0.00786801     1.01410
C375        C  0.10129579  0.39262012  0.00474887     0.99260
H376        H  0.94343663  0.44487949  0.94768793     0.29010
O377        O  0.96035241  0.46150447  0.96432199    -1.01830
H378        H  0.06090822  0.44275052  0.06409639     0.29050
O379        O  0.04454198  0.45980534  0.04755215    -1.04370
O380        O  0.00853266  0.57277582  0.89377234    -0.81600
O381        O  0.99975851  0.57048012  0.11920346    -0.81140
O382        O  0.89080567  0.51052522  0.94108047    -0.79570
O383        O  0.11881740  0.49053371  0.94066591    -0.82910
O384        O  0.11308231  0.51259372  0.07336820    -0.80770
O385        O  0.88719291  0.49857711  0.07190991    -0.79420
O386        O  0.93841186  0.61605496  0.00789587    -0.80940
O387        O  0.06909567  0.61279029  0.99934281    -0.82860
O388        O  0.88788344  0.56910395  0.00844079    -0.79600
O389        O  0.11914171  0.56689970  0.99819097    -0.82280
O390        O  0.93908337  0.50982235  0.89179102    -0.78010
O391        O  0.93717967  0.49645613  0.11779375    -0.78040
O392        O  0.06570405  0.51073345  0.12332611    -0.77690
O393        O  0.06822560  0.48856588  0.89530382    -0.81190
O394        O  0.00476003  0.61796644  0.94465636    -0.80610
O395        O  0.00593827  0.61683240  0.06930007    -0.78940
Eu396      Eu  0.00303251  0.50241591  0.92412654     2.39770
Eu397      Eu  0.00303583  0.50063032  0.08818244     2.39570
Eu398      Eu  0.91982927  0.50083470  0.00678990     2.38400
Eu399      Eu  0.08617976  0.49957435  0.00593891     2.39880
Eu400      Eu  0.00346910  0.58057986  0.00656316     2.39790
O401        O  0.04440003  0.53985144  0.04619384    -0.93350
O402        O  0.96200290  0.54106185  0.96628144    -0.92250
C403        C  0.00732986  0.60938627  0.90744062     1.01820
C404        C  0.00256178  0.60732603  0.10633117     1.00530
C405        C  0.90273544  0.51276253  0.90451044     0.99920
C406        C  0.10524983  0.48444230  0.90514303     1.01940
C407        C  0.10169973  0.51635594  0.11023524     1.00860
C408        C  0.89995919  0.49635490  0.10806091     0.99700
C409        C  0.90076253  0.60596436  0.00830595     0.99760
C410        C  0.10637004  0.60345232  0.99603821     1.02380
H411        H  0.94523336  0.55766742  0.06424807     0.29750
O412        O  0.96176407  0.54080134  0.04765232    -1.05510
H413        H  0.06181835  0.55675587  0.94801546     0.31800
O414        O  0.04499835  0.54068099  0.96538752    -1.08080
C415        C  0.76217550  0.49970604  0.28987052     0.02620
C416        C  0.78219008  0.47154640  0.26649849    -0.13530
C417        C  0.78257856  0.47610164  0.22540110     0.00120
C418        C  0.75296451  0.49991817  0.20792803    -0.12050
C419        C  0.72308015  0.51773173  0.23059826     0.02610
C420        C  0.72942865  0.52099828  0.27252275    -0.11470
H421        H  0.80269094  0.45088672  0.28039118     0.08210
H422        H  0.75203360  0.50399943  0.17587875     0.05740
H423        H  0.71025939  0.53967813  0.29067536     0.05580
C424        C  0.22664134  0.51636239  0.27477288     0.02620
C425        C  0.20730675  0.54272052  0.24885286    -0.13530
C426        C  0.22605309  0.55663814  0.21400511     0.00120
C427        C  0.26717853  0.55054501  0.20957897    -0.12050
C428        C  0.28633347  0.52049705  0.23149046     0.02610
C429        C  0.26616130  0.50338071  0.26501127    -0.11470
H430        H  0.17560995  0.54858636  0.25381562     0.08210
H431        H  0.28256303  0.56404862  0.18431316     0.05740
H432        H  0.28042715  0.48022738  0.28243347     0.05580
C433        C  0.22332117  0.49477770  0.72798408     0.02620
C434        C  0.20398134  0.46361033  0.74828761    -0.13530
C435        C  0.21208432  0.45519938  0.78823402     0.00120
C436        C  0.24539284  0.47437788  0.80572642    -0.12050
C437        C  0.26874133  0.50254316  0.78507370     0.02610
C438        C  0.25681594  0.51424341  0.74604686    -0.11470
H439        H  0.17990130  0.44832687  0.73318764     0.08210
H440        H  0.25282199  0.46918754  0.83666624     0.05740
H441        H  0.27292516  0.53775464  0.73036781     0.05580
C442        C  0.76993827  0.49572050  0.71851297     0.02620
C443        C  0.79549274  0.51216017  0.74711889    -0.13530
C444        C  0.78219674  0.51866933  0.78560488     0.00120
C445        C  0.74194089  0.51311477  0.79543990    -0.12050
C446        C  0.71511357  0.49593894  0.76820480     0.02610
C447        C  0.72904712  0.48691630  0.72890557    -0.11470
H448        H  0.82728617  0.51646448  0.74033847     0.08210
H449        H  0.73248014  0.51820892  0.82607260     0.05740
H450        H  0.70913487  0.47279080  0.70755197     0.05580
C451        C  0.21580705  0.26576261  0.99633018     0.02620
C452        C  0.22399711  0.22380926  0.99623255    -0.13530
C453        C  0.26484057  0.21104636  0.99103650     0.00120
C454        C  0.29546833  0.23977917  0.99135502    -0.12050
C455        C  0.28679525  0.27948993  0.98910220     0.02610
C456        C  0.24744874  0.29210540  0.98759286    -0.11470
H457        H  0.19994308  0.20221467  0.00049401     0.08210
H458        H  0.32697477  0.23122065  0.99204502     0.05740
H459        H  0.24192815  0.32393015  0.98503726     0.05580
O460        O  0.50756647  0.39027569  0.07125784    -0.80640
O461        O  0.51443051  0.61544557  0.07101077    -0.82190
O462        O  0.57153266  0.50811092  0.11343612    -0.79210
O463        O  0.44347943  0.50256273  0.11860783    -0.77600
O464        O  0.39106674  0.50002878  0.07457589    -0.79390
O465        O  0.62111751  0.50932292  0.06580320    -0.80320
O466        O  0.51164655  0.56633352  0.11746245    -0.81640
O467        O  0.50953894  0.44073094  0.11711661    -0.81930
Eu468      Eu  0.50692227  0.50361760  0.08095522     2.39200
O469        O  0.46410979  0.54417692  0.04369427    -0.89440
O470        O  0.54741438  0.46304192  0.03983953    -0.93050
C471        C  0.50909354  0.40351456  0.10798711     1.01640
C472        C  0.51599537  0.60322437  0.10797891     1.01460
C473        C  0.60867669  0.51020950  0.10294267     1.01410
C474        C  0.40555241  0.50089091  0.11057502     0.99260
H475        H  0.56483091  0.56187890  0.05492118     0.29010
O476        O  0.54701215  0.54504783  0.03951001    -1.01830
H477        H  0.44821482  0.44598852  0.06084165     0.29050
O478        O  0.46390738  0.46278034  0.04308696    -1.04370
O479        O  0.49741810  0.61842555  0.93378651    -0.81600
O480        O  0.50042107  0.39206816  0.93106395    -0.81140
O481        O  0.61798130  0.57067875  0.98431903    -0.79570
O482        O  0.38807469  0.56846663  0.01627972    -0.82910
O483        O  0.38835938  0.43962804  0.00503220    -0.80770
O484        O  0.61532118  0.43842981  0.98938892    -0.79420
O485        O  0.56031936  0.50199352  0.88347590    -0.80940
O486        O  0.43298300  0.51049672  0.89049756    -0.82860
O487        O  0.61358537  0.50184929  0.92646578    -0.79600
O488        O  0.38474154  0.50823182  0.93883403    -0.82280
O489        O  0.56734817  0.61568716  0.98501065    -0.78010
O490        O  0.56822808  0.38857081  0.99502518    -0.78040
O491        O  0.43747542  0.39169501  0.00211185    -0.77690
O492        O  0.43909088  0.61464744  0.01847555    -0.81190
O493        O  0.49943669  0.56841944  0.88733982    -0.80610
O494        O  0.49630260  0.44271761  0.88531893    -0.78940
Eu495      Eu  0.50349057  0.58555588  0.00223482     2.39770
Eu496      Eu  0.50375782  0.42199740  0.00155322     2.39570
Eu497      Eu  0.58673494  0.50493525  0.99754132     2.38400
Eu498      Eu  0.42043515  0.50417011  0.00545363     2.39880
Eu499      Eu  0.49845605  0.50499831  0.92239408     2.39790
O500        O  0.45977935  0.46286017  0.96370173    -0.93350
O501        O  0.54197665  0.54451993  0.96053349    -0.92250
C502        C  0.49793779  0.60541403  0.89702974     1.01820
C503        C  0.49808398  0.40553442  0.89441735     1.00530
C504        C  0.60401759  0.60607593  0.97848298     0.99920
C505        C  0.40191701  0.60403240  0.02193959     1.01940
C506        C  0.40070323  0.40348786  0.00324406     1.00860
C507        C  0.60434089  0.40139135  0.98876700     0.99700
C508        C  0.59829174  0.50081122  0.89060421     0.99760
C509        C  0.39592586  0.51068998  0.90156278     1.02380
H510        H  0.55675042  0.44859935  0.94171016     0.29750
O511        O  0.54174503  0.46486048  0.96019128    -1.05510
H512        H  0.44183336  0.56337552  0.94845481     0.31800
O513        O  0.45922105  0.54619852  0.96376967    -1.08080
C514        C  0.72761906  0.78182057  0.99156478     0.02620
C515        C  0.76425538  0.76451723  0.00545447    -0.13530
C516        C  0.77580713  0.72609392  0.99082937     0.00120
C517        C  0.74702233  0.70481063  0.96853664    -0.12050
C518        C  0.71386614  0.72326929  0.95075225     0.02610
C519        C  0.70777027  0.76352803  0.95955846    -0.11470
H520        H  0.78254518  0.78046863  0.02683168     0.08210
H521        H  0.75156917  0.67314611  0.96452009     0.05740
H522        H  0.68328775  0.77949872  0.94640278     0.05580
C523        C  0.27100534  0.78159643  0.01860234     0.02620
C524        C  0.23960169  0.76150017  0.99822957    -0.13530
C525        C  0.23064355  0.72135916  0.00839177     0.00120
C526        C  0.25627524  0.70126362  0.03461682    -0.12050
C527        C  0.28855416  0.72103442  0.05295082     0.02610
C528        C  0.29071581  0.76215297  0.04993392    -0.11470
H529        H  0.22331048  0.77630165  0.97454845     0.08210
H530        H  0.25277482  0.66925909  0.03812311     0.05740
H531        H  0.31363610  0.77777397  0.06685244     0.05580
C532        C  0.72038068  0.23083535  0.99487848     0.02620
C533        C  0.76046231  0.23974561  0.00691427    -0.13530
C534        C  0.78144444  0.27196358  0.98831311     0.00120
C535        C  0.76306610  0.29241885  0.95694138    -0.12050
C536        C  0.72146362  0.29017339  0.95231542     0.02610
C537        C  0.70108227  0.25726653  0.96908245    -0.11470
H538        H  0.77449714  0.22280324  0.03057517     0.08210
H539        H  0.78001704  0.31515049  0.94114912     0.05740
H540        H  0.66894582  0.25348122  0.96478610     0.05580
C541        C  0.65814723  0.32138244  0.93008862    -0.02360
C542        C  0.69790286  0.32681158  0.94345383     0.07330
C543        C  0.70684634  0.36124351  0.96622365    -0.02470
C544        C  0.67597378  0.38118477  0.98608910    -0.02470
C545        C  0.63542035  0.37260926  0.97665530     0.07460
C546        C  0.62654597  0.34234316  0.94827730    -0.02670
Br547      Br  0.57201564  0.32624409  0.93576584    -0.01220
Br548      Br  0.64784822  0.28314790  0.88821005    -0.01290
Br549      Br  0.69028701  0.41857473  0.02796359    -0.01250
Br550      Br  0.75911876  0.38684330  0.96469225    -0.01230
C551        C  0.32106453  0.65998903  0.07848593    -0.02360
C552        C  0.32552333  0.69806839  0.06138372     0.07330
C553        C  0.35988593  0.70608083  0.03737074    -0.02470
C554        C  0.38096776  0.67454579  0.02051038    -0.02470
C555        C  0.37421503  0.63547322  0.03464520     0.07460
C556        C  0.34546681  0.62864048  0.06527303    -0.02670
Br557      Br  0.33805965  0.57700913  0.08895530    -0.01220
Br558      Br  0.28022012  0.65127214  0.11892161    -0.01290
Br559      Br  0.41622603  0.68547475  0.97533760    -0.01250
Br560      Br  0.38233154  0.75890209  0.03011226    -0.01230
C561        C  0.69014383  0.65821263  0.92249268    -0.02360
C562        C  0.68169870  0.69827466  0.93124493     0.07330
C563        C  0.64141658  0.70712427  0.93987713    -0.02470
C564        C  0.61692206  0.67822122  0.95818436    -0.02470
C565        C  0.63040830  0.63774178  0.96060783     0.07460
C566        C  0.66596734  0.62763340  0.93890093    -0.02670
Br567      Br  0.68233849  0.57323422  0.92889796    -0.01220
Br568      Br  0.73429869  0.64633902  0.88708113    -0.01290
Br569      Br  0.56545360  0.69726263  0.97779018    -0.01250
Br570      Br  0.61670651  0.75361531  0.91662767    -0.01230
C571        C  0.34186022  0.31163291  0.02692109    -0.02360
C572        C  0.31879425  0.30875499  0.99175572     0.07330
C573        C  0.32256032  0.33696586  0.96109831    -0.02470
C574        C  0.34526688  0.37123807  0.96762764    -0.02470
C575        C  0.37047725  0.37282308  0.00120962     0.07460
C576        C  0.36960469  0.34278114  0.03052767    -0.02670
Br577      Br  0.40473796  0.34539843  0.07641145    -0.01220
Br578      Br  0.33472285  0.27448162  0.07074109    -0.01290
Br579      Br  0.33971344  0.41610879  0.93182236    -0.01250
Br580      Br  0.29901934  0.32675768  0.90957111    -0.01230
C581        C  0.64484469  0.51509694  0.78573706    -0.02360
C582        C  0.67479851  0.48571846  0.78547524     0.07330
C583        C  0.67426150  0.45755226  0.81666494    -0.02470
C584        C  0.65441145  0.46602522  0.85290688    -0.02470
C585        C  0.62504396  0.49634151  0.85439743     0.07460
C586        C  0.61766587  0.51788702  0.81832739    -0.02670
Br587      Br  0.57087713  0.55075212  0.81170406    -0.01220
Br588      Br  0.64245189  0.55217147  0.74178821    -0.01290
Br589      Br  0.66815738  0.43539333  0.89933136    -0.01250
Br590      Br  0.69729259  0.40597829  0.80750589    -0.01230
C591        C  0.30011753  0.53841783  0.84300218    -0.02360
C592        C  0.30526788  0.51715094  0.80696466     0.07330
C593        C  0.34213117  0.49787398  0.80015393    -0.02470
C594        C  0.37193470  0.49646305  0.83028858    -0.02470
C595        C  0.36506824  0.51418480  0.86850621     0.07460
C596        C  0.32948597  0.53684358  0.87361646    -0.02670
Br597      Br  0.32068130  0.56675634  0.92200479    -0.01220
Br598      Br  0.25101007  0.56787878  0.85082878    -0.01290
Br599      Br  0.42068738  0.46747700  0.81828257    -0.01250
Br600      Br  0.34996575  0.47008360  0.75022607    -0.01230
C601        C  0.35687966  0.53151083  0.20949608    -0.02360
C602        C  0.32394541  0.50497395  0.21264133     0.07330
C603        C  0.32061111  0.47359816  0.18457165    -0.02470
C604        C  0.34675098  0.47207425  0.15098073    -0.02470
C605        C  0.37747987  0.50122142  0.14586893     0.07460
C606        C  0.38254925  0.53061191  0.17586288    -0.02670
Br607      Br  0.41980039  0.57435504  0.16786608    -0.01220
Br608      Br  0.36358732  0.57212396  0.24977656    -0.01290
Br609      Br  0.33861732  0.43144371  0.11096915    -0.01250
Br610      Br  0.27728610  0.43514428  0.19005031    -0.01230
C611        C  0.68771380  0.55348787  0.17503251    -0.02360
C612        C  0.68551910  0.52638893  0.20754638     0.07330
C613        C  0.65620750  0.49573290  0.20617787    -0.02470
C614        C  0.63275491  0.48957679  0.17150345    -0.02470
C615        C  0.63729745  0.51469064  0.13748100     0.07460
C616        C  0.66384553  0.54777574  0.14034417    -0.02670
Br617      Br  0.66703958  0.58584618  0.09718087    -0.01220
Br618      Br  0.72628168  0.59672972  0.17727283    -0.01290
Br619      Br  0.59624979  0.44444768  0.17031391    -0.01250
Br620      Br  0.65144926  0.45912313  0.25064751    -0.01230
C621        C  0.85072526  0.64621066  0.96945675    -0.02360
C622        C  0.87070541  0.63945501  0.00567471     0.07330
C623        C  0.86577027  0.66848313  0.03613377    -0.02470
C624        C  0.83527752  0.69819432  0.03318244    -0.02470
C625        C  0.81560170  0.70446929  0.99625666     0.07460
C626        C  0.82959978  0.68186143  0.96333600    -0.02670
Br627      Br  0.82179902  0.70104855  0.90953322    -0.01220
Br628      Br  0.85091810  0.60679604  0.92812283    -0.01290
Br629      Br  0.82137365  0.72902200  0.07955727    -0.01250
Br630      Br  0.90156048  0.66907657  0.08060575    -0.01230
C631        C  0.88356104  0.32135353  0.98919889    -0.02360
C632        C  0.87351907  0.35802806  0.00860903     0.07330
C633        C  0.83778247  0.35829531  0.03158036    -0.02470
C634        C  0.81022343  0.32590076  0.03058029    -0.02470
C635        C  0.81718866  0.29298606  0.00538389     0.07460
C636        C  0.85475233  0.29004689  0.98625482    -0.02670
Br637      Br  0.86535362  0.24336841  0.95437693    -0.01220
Br638      Br  0.93645640  0.31159495  0.96712410    -0.01290
Br639      Br  0.76073733  0.32793372  0.06110570    -0.01250
Br640      Br  0.82759192  0.40152713  0.06685793    -0.01230
C641        C  0.15682699  0.70662106  0.00445099    -0.02360
C642        C  0.19622126  0.69800833  0.99193912     0.07330
C643        C  0.20366315  0.66160282  0.97225420    -0.02470
C644        C  0.17409167  0.63106294  0.97186541    -0.02470
C645        C  0.13580332  0.63750162  0.98967321     0.07460
C646        C  0.12610553  0.67747402  0.00116439    -0.02670
Br647      Br  0.07146264  0.69513476  0.01107856    -0.01220
Br648      Br  0.14568373  0.75728226  0.02962628    -0.01290
Br649      Br  0.18619140  0.58177322  0.94458420    -0.01250
Br650      Br  0.25542298  0.65365491  0.94709311    -0.01230
C651        C  0.14342870  0.28651404  0.98454909    -0.02360
C652        C  0.17785033  0.28656707  0.00888342     0.07330
C653        C  0.18296267  0.31904558  0.03539180    -0.02470
C654        C  0.16396262  0.35546750  0.02720670    -0.02470
C655        C  0.12835204  0.35623585  0.00444847     0.07460
C656        C  0.11668205  0.31953105  0.98533064    -0.02670
Br657      Br  0.06604454  0.31328836  0.95780636    -0.01220
Br658      Br  0.13416719  0.24221208  0.94903820    -0.01290
Br659      Br  0.19378055  0.40314913  0.03839181    -0.01250
Br660      Br  0.22307423  0.31640116  0.07706155    -0.01230
C661        C  0.87156983  0.54835356  0.84741955    -0.02360
C662        C  0.87178453  0.51625073  0.87475916     0.07330
C663        C  0.84328265  0.48535723  0.87247278    -0.02470
C664        C  0.81603377  0.48533166  0.84132626    -0.02470
C665        C  0.81207782  0.51954215  0.81721113     0.07460
C666        C  0.83974482  0.55134007  0.82027762    -0.02670
Br667      Br  0.83450623  0.59796127  0.78686208    -0.01220
Br668      Br  0.91445489  0.58766507  0.84655089    -0.01290
Br669      Br  0.79049047  0.43557109  0.82781562    -0.01250
Br670      Br  0.84307147  0.44133804  0.91005454    -0.01230
C671        C  0.19051280  0.42814898  0.85382579    -0.02360
C672        C  0.18094991  0.43477062  0.81373706     0.07330
C673        C  0.14071677  0.44387209  0.80555849    -0.02470
C674        C  0.11854736  0.46553402  0.83341150    -0.02470
C675        C  0.13233358  0.46804291  0.87373484     0.07460
C676        C  0.16808689  0.44693323  0.88400277    -0.02670
Br677      Br  0.18897125  0.44360128  0.93759161    -0.01220
Br678      Br  0.23578575  0.39482056  0.86560966    -0.01290
Br679      Br  0.07143953  0.49238904  0.81267325    -0.01250
Br680      Br  0.11319942  0.41850467  0.76164347    -0.01230
C681        C  0.17098185  0.51284408  0.13348902    -0.02360
C682        C  0.13294283  0.52919612  0.13849562     0.07330
C683        C  0.12805598  0.56221130  0.16423331    -0.02470
C684        C  0.16208355  0.57892974  0.18317128    -0.02470
C685        C  0.20030998  0.56141206  0.17813870     0.07460
C686        C  0.20477052  0.53215067  0.14818236    -0.02670
Br687      Br  0.25519928  0.51908608  0.12321151    -0.01220
Br688      Br  0.17561127  0.45903073  0.11545473    -0.01290
Br689      Br  0.15702269  0.62457310  0.21766033    -0.01250
Br690      Br  0.07532847  0.58044933  0.17913560    -0.01230
C691        C  0.83104682  0.47729316  0.13150907    -0.02360
C692        C  0.87067188  0.48974372  0.14075164     0.07330
C693        C  0.88354477  0.48897421  0.18130104    -0.02470
C694        C  0.85659568  0.47639627  0.21118794    -0.02470
C695        C  0.81721175  0.46358658  0.20056082     0.07460
C696        C  0.80857948  0.45669824  0.16017973    -0.02670
Br697      Br  0.76025988  0.42748976  0.14542284    -0.01220
Br698      Br  0.80247872  0.49755740  0.08542779    -0.01290
Br699      Br  0.87544063  0.47755968  0.26588050    -0.01250
Br700      Br  0.93549426  0.51022688  0.19860889    -0.01230
C701        C  0.45801948  0.34481753  0.80595194    -0.02360
C702        C  0.49358037  0.33191576  0.78658140     0.07330
C703        C  0.53080783  0.34615872  0.80143237    -0.02470
C704        C  0.53231527  0.37014219  0.83636413    -0.02470
C705        C  0.49708881  0.37771119  0.85904409     0.07460
C706        C  0.45986878  0.36530871  0.84285724    -0.02670
Br707      Br  0.41134485  0.37383723  0.87262149    -0.01220
Br708      Br  0.40657160  0.32902291  0.78411304    -0.01290
Br709      Br  0.58288142  0.39208317  0.85332346    -0.01250
Br710      Br  0.57996905  0.32973185  0.77566535    -0.01230
C711        C  0.46130902  0.66466080  0.80615796    -0.02360
C712        C  0.49806516  0.67627121  0.78775320     0.07330
C713        C  0.53427887  0.66242274  0.80502764    -0.02470
C714        C  0.53408904  0.64348301  0.84283068    -0.02470
C715        C  0.49750249  0.63341731  0.86206794     0.07460
C716        C  0.46103287  0.64246694  0.84238502    -0.02670
Br717      Br  0.41062289  0.62586165  0.86612295    -0.01220
Br718      Br  0.41146603  0.68307660  0.78360828    -0.01290
Br719      Br  0.58427659  0.63392088  0.86970888    -0.01250
Br720      Br  0.58482065  0.67551976  0.77930475    -0.01230
C721        C  0.53608540  0.67257851  0.13428039    -0.02360
C722        C  0.52379293  0.63266849  0.14211590     0.07330
C723        C  0.52122306  0.62128131  0.18361405    -0.02470
C724        C  0.52175371  0.65075204  0.21434475    -0.02470
C725        C  0.53263286  0.69051230  0.20567029     0.07460
C726        C  0.54496692  0.69882269  0.16597041    -0.02670
Br727      Br  0.57719227  0.74502867  0.15450646    -0.01220
Br728      Br  0.54067344  0.69421812  0.08089013    -0.01290
Br729      Br  0.50690695  0.63693276  0.26834831    -0.01250
Br730      Br  0.51990096  0.56612546  0.20099153    -0.01230
C731        C  0.48071787  0.35491297  0.20864283    -0.02360
C732        C  0.51235428  0.32783690  0.21524162     0.07330
C733        C  0.54469355  0.32793478  0.18732325    -0.02470
C734        C  0.54301268  0.35079258  0.15147440    -0.02470
C735        C  0.50966660  0.37554665  0.14352294     0.07460
C736        C  0.47942786  0.37851055  0.17346311    -0.02670
Br737      Br  0.43404188  0.41286086  0.16530383    -0.01220
Br738      Br  0.43640680  0.35576829  0.24611282    -0.01290
Br739      Br  0.58635227  0.34796442  0.11310236    -0.01250
Br740      Br  0.58968408  0.29328315  0.19691827    -0.01230
C741        C  0.66042093  0.20142486  0.03096555    -0.02360
C742        C  0.69592404  0.19553692  0.00830492     0.07330
C743        C  0.70099545  0.15899106  0.98838498    -0.02470
C744        C  0.66993230  0.12981722  0.98851795    -0.02470
C745        C  0.63284760  0.13668232  0.00891923     0.07460
C746        C  0.62916895  0.17232225  0.03141782    -0.02670
Br747      Br  0.58200796  0.18149007  0.06400062    -0.01220
Br748      Br  0.65418890  0.25072009  0.06008115    -0.01290
Br749      Br  0.67842006  0.08194750  0.95764112    -0.01250
Br750      Br  0.74966559  0.15052454  0.95776046    -0.01230
C751        C  0.33481456  0.86894824  0.03417845    -0.02360
C752        C  0.36271948  0.86603754  0.00272141     0.07330
C753        C  0.35509519  0.83874942  0.97165298    -0.02470
C754        C  0.31968240  0.81485732  0.97241176    -0.02470
C755        C  0.29163336  0.81842092  0.00424119     0.07460
C756        C  0.29787903  0.84840519  0.03295015    -0.02670
Br757      Br  0.25863034  0.85567851  0.07494145    -0.01220
Br758      Br  0.35234168  0.89167943  0.08361027    -0.01290
Br759      Br  0.31265218  0.77346247  0.93296393    -0.01250
Br760      Br  0.39588838  0.82934354  0.93205166    -0.01230
C761        C  0.71162689  0.85424975  0.00932597    -0.02360
C762        C  0.70283250  0.81327789  0.01240761     0.07330
C763        C  0.66350840  0.80207488  0.02455568    -0.02470
C764        C  0.63134061  0.82950701  0.02297952    -0.02470
C765        C  0.63910638  0.87125734  0.01812081     0.07460
C766        C  0.68087027  0.88312630  0.01553752    -0.02670
Br767      Br  0.69836385  0.93808290  0.02123172    -0.01220
Br768      Br  0.76573919  0.87042602  0.99541075    -0.01290
Br769      Br  0.57758540  0.80663851  0.02377194    -0.01250
Br770      Br  0.65369864  0.74738829  0.04088555    -0.01230
C771        C  0.28403640  0.14515432  0.01995746    -0.02360
C772        C  0.28061474  0.16970921  0.98606651     0.07330
C773        C  0.31008169  0.16561697  0.95559287    -0.02470
C774        C  0.34803582  0.14995166  0.96535347    -0.02470
C775        C  0.35183889  0.12436016  0.99830030     0.07460
C776        C  0.31820815  0.12044267  0.02448217    -0.02670
Br777      Br  0.32053429  0.08577304  0.06965146    -0.01220
Br778      Br  0.24394316  0.14829600  0.06159398    -0.01290
Br779      Br  0.39538361  0.17345151  0.94154380    -0.01250
Br780      Br  0.30294809  0.19291336  0.90533902    -0.01230
C781        C  0.45548361  0.13870348  0.85485474    -0.02360
C782        C  0.49175401  0.13470088  0.87592576     0.07330
C783        C  0.52374964  0.16184611  0.87093173    -0.02470
C784        C  0.52173961  0.18972099  0.84032171    -0.02470
C785        C  0.48612040  0.19245650  0.81777316     0.07460
C786        C  0.45261501  0.16786984  0.82542265    -0.02670
Br787      Br  0.40296598  0.17492870  0.79637076    -0.01220
Br788      Br  0.40856896  0.10778355  0.86967013    -0.01290
Br789      Br  0.56830759  0.22281576  0.82845345    -0.01250
Br790      Br  0.56867217  0.16295320  0.90755734    -0.01230
C791        C  0.54497039  0.85265091  0.86864742    -0.02360
C792        C  0.50821470  0.87171876  0.87604701     0.07330
C793        C  0.47346744  0.86293447  0.85416986    -0.02470
C794        C  0.47445211  0.83130690  0.82779304    -0.02470
C795        C  0.51184857  0.81466816  0.81777996     0.07460
C796        C  0.54741600  0.82566334  0.83729787    -0.02670
Br797      Br  0.59856701  0.80395701  0.82085713    -0.01220
Br798      Br  0.59130291  0.86363139  0.90096931    -0.01290
Br799      Br  0.42451105  0.80868238  0.80883909    -0.01250
Br800      Br  0.42552783  0.89507518  0.85863833    -0.01230
C801        C  0.51414604  0.85269096  0.14866825    -0.02360
C802        C  0.47953197  0.87473435  0.14110575     0.07330
C803        C  0.44604498  0.87252113  0.16731848    -0.02470
C804        C  0.44477537  0.84214357  0.19627327    -0.02470
C805        C  0.47994949  0.82042455  0.20337323     0.07460
C806        C  0.51576728  0.83056194  0.18324484    -0.02670
Br807      Br  0.56721706  0.82442689  0.20801179    -0.01220
Br808      Br  0.56093906  0.85528485  0.11434735    -0.01290
Br809      Br  0.39699396  0.83216461  0.22755828    -0.01250
Br810      Br  0.40494464  0.91266724  0.16695472    -0.01230
C811        C  0.51392249  0.14051628  0.15758407    -0.02360
C812        C  0.48141162  0.13497952  0.13167029     0.07330
C813        C  0.44707897  0.15933906  0.13293553    -0.02470
C814        C  0.44400832  0.18787056  0.16288305    -0.02470
C815        C  0.47655030  0.19326686  0.18881824     0.07460
C816        C  0.51221084  0.17098758  0.18522334    -0.02670
Br817      Br  0.55977931  0.18342998  0.21603071    -0.01220
Br818      Br  0.56149217  0.10759862  0.15414703    -0.01290
Br819      Br  0.39589257  0.21938689  0.16866358    -0.01250
Br820      Br  0.40454119  0.15370912  0.09425291    -0.01230
C821        C  0.31081237  0.99218483  0.11707811    -0.02360
C822        C  0.34848493  0.01149396  0.12596077     0.07330
C823        C  0.34764341  0.04102175  0.15624627    -0.02470
C824        C  0.31140593  0.04830164  0.17729660    -0.02470
C825        C  0.28021092  0.01970985  0.17718860     0.07460
C826        C  0.27916674  0.99257805  0.14544022    -0.02670
Br827      Br  0.23402763  0.95639066  0.14117643    -0.01220
Br828      Br  0.29764882  0.97153719  0.06488289    -0.01290
Br829      Br  0.30141486  0.09884830  0.20262982    -0.01250
Br830      Br  0.39392272  0.07404420  0.16726940    -0.01230
C831        C  0.70270038  0.97163315  0.84921748    -0.02360
C832        C  0.71072590  0.00725045  0.82813999     0.07330
C833        C  0.68922068  0.04184286  0.83935770    -0.02470
C834        C  0.65332717  0.03848039  0.86154949    -0.02470
C835        C  0.64371694  0.00260106  0.88130986     0.07460
C836        C  0.67158000  0.97071906  0.87843910    -0.02670
Br837      Br  0.66908651  0.92708993  0.91544972    -0.01220
Br838      Br  0.73327115  0.92438004  0.83794000    -0.01290
Br839      Br  0.61756824  0.08318281  0.86440916    -0.01250
Br840      Br  0.70914863  0.09389867  0.82356910    -0.01230
C841        C  0.32744222  0.01241645  0.80884746    -0.02360
C842        C  0.29368766  0.98762858  0.81718558     0.07330
C843        C  0.29320788  0.96600350  0.85309219    -0.02470
C844        C  0.32644482  0.96773265  0.87949736    -0.02470
C845        C  0.36202428  0.99004128  0.86955223     0.07460
C846        C  0.36259159  0.01079539  0.83268876    -0.02670
Br847      Br  0.41245491  0.03146279  0.81066163    -0.01220
Br848      Br  0.32647853  0.04592781  0.76189939    -0.01290
Br849      Br  0.32421281  0.93422350  0.92640757    -0.01250
Br850      Br  0.24748821  0.93173389  0.86422956    -0.01230
C851        C  0.53478839  0.15538343  0.35068965    -0.02360
C852        C  0.49930365  0.13875210  0.36738523     0.07330
C853        C  0.46295951  0.15944794  0.36178162    -0.02470
C854        C  0.46268571  0.19775735  0.34362150    -0.02470
C855        C  0.49813654  0.21447639  0.32622367     0.07460
C856        C  0.53457612  0.19353674  0.33193800    -0.02670
Br857      Br  0.58425970  0.21692129  0.31293426    -0.01220
Br858      Br  0.58232708  0.12320647  0.34839854    -0.01290
Br859      Br  0.41239727  0.22557766  0.33747014    -0.01250
Br860      Br  0.41292628  0.13102480  0.37074674    -0.01230
C861        C  0.51080631  0.78821816  0.36159277    -0.02360
C862        C  0.53575925  0.79071674  0.32760966     0.07330
C863        C  0.55861089  0.82608602  0.32321247    -0.02470
C864        C  0.54701992  0.86162429  0.34259638    -0.02470
C865        C  0.52229050  0.85997814  0.37710815     0.07460
C866        C  0.50670398  0.82126004  0.38795069    -0.02670
Br867      Br  0.47815516  0.81166365  0.43740167    -0.01220
Br868      Br  0.48088469  0.73939194  0.37035277    -0.01290
Br869      Br  0.56155702  0.91121250  0.31730042    -0.01250
Br870      Br  0.60968695  0.82391304  0.29648627    -0.01230
C871        C  0.53302145  0.15617451  0.65174944    -0.02360
C872        C  0.49890892  0.14850311  0.62785894     0.07330
C873        C  0.46916119  0.17871246  0.62588724    -0.02470
C874        C  0.47088947  0.21260584  0.65132640    -0.02470
C875        C  0.50344500  0.21823116  0.67770757     0.07460
C876        C  0.53587511  0.19108222  0.67539230    -0.02670
Br877      Br  0.58254213  0.19986590  0.70868959    -0.01220
Br878      Br  0.57641405  0.11916437  0.65183763    -0.01290
Br879      Br  0.42713643  0.25007817  0.65262222    -0.01250
Br880      Br  0.42495607  0.17343301  0.58947625    -0.01230
C881        C  0.47261157  0.85842647  0.65886440    -0.02360
C882        C  0.50548804  0.86306522  0.63255436     0.07330
C883        C  0.53175576  0.82992990  0.62787385    -0.02470
C884        C  0.52701252  0.79500422  0.65176316    -0.02470
C885        C  0.49427366  0.79099350  0.67842432     0.07460
C886        C  0.46492932  0.82147867  0.67801688    -0.02670
Br887      Br  0.41522534  0.81333917  0.70666710    -0.01220
Br888      Br  0.43906385  0.90315800  0.67068325    -0.01290
Br889      Br  0.56634564  0.75307214  0.64988076    -0.01250
Br890      Br  0.57666482  0.83324276  0.59142179    -0.01230
C891        C  0.35318868  0.00292938  0.30491242    -0.02360
C892        C  0.31979198  0.97658776  0.30790608     0.07330
C893        C  0.31590957  0.95152303  0.34151775    -0.02470
C894        C  0.34188550  0.95698541  0.37395997    -0.02470
C895        C  0.37686794  0.98101481  0.36923852     0.07460
C896        C  0.38349651  0.00216584  0.33342825    -0.02670
Br897      Br  0.43129879  0.03506660  0.32454167    -0.01220
Br898      Br  0.35509765  0.04642409  0.26762140    -0.01290
Br899      Br  0.32597230  0.93512637  0.42508332    -0.01250
Br900      Br  0.27401045  0.91110023  0.34393571    -0.01230
C901        C  0.65591168  0.05924940  0.69917735    -0.02360
C902        C  0.69706870  0.05502786  0.69019018     0.07330
C903        C  0.70752086  0.04589086  0.65023165    -0.02470
C904        C  0.67804072  0.03067349  0.62422582    -0.02470
C905        C  0.63714708  0.02597952  0.63762584     0.07460
C906        C  0.62715156  0.03872707  0.67668029    -0.02670
Br907      Br  0.57634484  0.02621916  0.70278865    -0.01220
Br908      Br  0.63921071  0.09240427  0.74323599    -0.01290
Br909      Br  0.69699922  0.01552102  0.57113708    -0.01250
Br910      Br  0.75953386  0.06005049  0.62731939    -0.01230
C911        C  0.36132444  0.96079492  0.70206479    -0.02360
C912        C  0.32725352  0.93751260  0.69298231     0.07330
C913        C  0.32062476  0.92693354  0.65297471    -0.02470
C914        C  0.34039905  0.94792593  0.62227753    -0.02470
C915        C  0.36995099  0.97726699  0.63208505     0.07460
C916        C  0.37896180  0.98459690  0.67263545    -0.02670
Br917      Br  0.41464980  0.02747926  0.68928188    -0.01220
Br918      Br  0.39074007  0.95196261  0.75064475    -0.01290
Br919      Br  0.32406631  0.93691432  0.56796851    -0.01250
Br920      Br  0.28275696  0.88467677  0.64119770    -0.01230
C921        C  0.70158635  0.03860730  0.15209186    -0.02360
C922        C  0.71205187  0.00649262  0.17709533     0.07330
C923        C  0.68767864  0.97187047  0.17586462    -0.02470
C924        C  0.64909513  0.97276959  0.15772876    -0.02470
C925        C  0.63650669  0.00661649  0.13595119     0.07460
C926        C  0.66445813  0.03866959  0.13155986    -0.02670
Br927      Br  0.65179578  0.08393075  0.09852289    -0.01220
Br928      Br  0.73758907  0.08403614  0.14912823    -0.01290
Br929      Br  0.61349563  0.92791726  0.16361711    -0.01250
Br930      Br  0.70894809  0.92276968  0.19677683    -0.01230
C931        C  0.68359784  0.07325816  0.34064381    -0.02360
C932        C  0.68560196  0.04358636  0.31100556     0.07330
C933        C  0.66749092  0.00566380  0.31764175    -0.02470
C934        C  0.65045507  0.99702383  0.35440978    -0.02470
C935        C  0.64429414  0.02766566  0.38139343     0.07460
C936        C  0.66247174  0.06531517  0.37610382    -0.02670
Br937      Br  0.66099910  0.10428123  0.41823276    -0.01220
Br938      Br  0.70950763  0.12431169  0.33224598    -0.01290
Br939      Br  0.64098300  0.94253240  0.37135604    -0.01250
Br940      Br  0.66488866  0.96436849  0.27802813    -0.01230
C941        C  0.35342517  0.80221323  0.54263212    -0.02360
C942        C  0.33417366  0.78575834  0.50883895     0.07330
C943        C  0.34457293  0.80135746  0.47086174    -0.02470
C944        C  0.36982797  0.83569608  0.46732802    -0.02470
C945        C  0.38375638  0.85574043  0.50189459     0.07460
C946        C  0.37715974  0.83721197  0.53923497    -0.02670
Br947      Br  0.39992025  0.86041106  0.58631658    -0.01220
Br948      Br  0.34279578  0.77914170  0.59454077    -0.01290
Br949      Br  0.38578191  0.85442093  0.41516835    -0.01250
Br950      Br  0.32201933  0.77694189  0.42385632    -0.01230
C951        C  0.70037854  0.83811570  0.54454142    -0.02360
C952        C  0.69486451  0.80455949  0.51950871     0.07330
C953        C  0.66115568  0.80367534  0.49419703    -0.02470
C954        C  0.63631946  0.83748752  0.49018103    -0.02470
C955        C  0.64240501  0.87204170  0.51417748     0.07460
C956        C  0.67356971  0.87093980  0.54291201    -0.02670
Br957      Br  0.67866039  0.91305884  0.58142418    -0.01220
Br958      Br  0.74664573  0.83984776  0.57915054    -0.01290
Br959      Br  0.59654039  0.83683550  0.44839714    -0.01250
Br960      Br  0.65191617  0.75692543  0.46160219    -0.01230
C961        C  0.64283566  0.21992122  0.48075762    -0.02360
C962        C  0.66900599  0.22609143  0.51305868     0.07330
C963        C  0.66555299  0.20009055  0.54633994    -0.02470
C964        C  0.64556282  0.16291149  0.54248681    -0.02470
C965        C  0.62188542  0.15477365  0.50856307     0.07460
C966        C  0.61781590  0.18557543  0.47957399    -0.02670
Br967      Br  0.57956011  0.18081771  0.43696224    -0.01220
Br968      Br  0.64498058  0.25631273  0.43612903    -0.01290
Br969      Br  0.65292904  0.12273117  0.58265691    -0.01250
Br970      Br  0.69631923  0.21197986  0.59372225    -0.01230
C971        C  0.33564472  0.20010039  0.48355700    -0.02360
C972        C  0.30999866  0.20075216  0.51735500     0.07330
C973        C  0.31869096  0.17297035  0.54829560    -0.02470
C974        C  0.34192877  0.13865369  0.54072973    -0.02470
C975        C  0.36666230  0.13717282  0.50653376     0.07460
C976        C  0.36726344  0.17180359  0.48164343    -0.02670
Br977      Br  0.41480049  0.18672923  0.45208770    -0.01220
Br978      Br  0.32895137  0.23643279  0.43949177    -0.01290
Br979      Br  0.34401115  0.09678036  0.58038269    -0.01250
Br980      Br  0.30417417  0.18532160  0.60267818    -0.01230
C981        C  0.83311802  0.97109157  0.64825435    -0.02360
C982        C  0.87301383  0.98636605  0.65031824     0.07330
C983        C  0.88741223  0.99770259  0.68926788    -0.02470
C984        C  0.85996557  0.00435948  0.72099465    -0.02470
C985        C  0.81938504  0.99353859  0.71697239     0.07460
C986        C  0.80728031  0.97318531  0.68190896    -0.02670
Br987      Br  0.75383330  0.94996692  0.67964389    -0.01220
Br988      Br  0.81360667  0.94496655  0.60071742    -0.01290
Br989      Br  0.87713717  0.03031483  0.76950083    -0.01250
Br990      Br  0.94416185  0.00166054  0.70269669    -0.01230
C991        C  0.16951284  0.02226044  0.69690340    -0.02360
C992        C  0.18777224  0.98463949  0.70237906     0.07330
C993        C  0.17532149  0.95294408  0.67722934    -0.02470
C994        C  0.15407489  0.96080153  0.64201465    -0.02470
C995        C  0.13390019  0.99713959  0.63735655     0.07460
C996        C  0.14012960  0.02729721  0.66643499    -0.02670
Br997      Br  0.11043908  0.07616179  0.66312674    -0.01220
Br998      Br  0.18549936  0.06700319  0.72930787    -0.01290
Br999      Br  0.15592571  0.92271654  0.59916924    -0.01250
Br1000     Br  0.18800926  0.89835804  0.69080223    -0.01230
C1001       C  0.11835052  0.99564531  0.32467729    -0.02360
C1002       C  0.12578610  0.01418509  0.36233172     0.07330
C1003       C  0.15892910  0.04093842  0.36516549    -0.02470
C1004       C  0.18568558  0.04603632  0.33259722    -0.02470
C1005       C  0.18168710  0.02256239  0.29774057     0.07460
C1006       C  0.14686933  0.99881214  0.29327124    -0.02670
Br1007     Br  0.14008072  0.96791587  0.24509111    -0.01220
Br1008     Br  0.07001545  0.96471326  0.31489444    -0.01290
Br1009     Br  0.23022083  0.08333596  0.33634733    -0.01250
Br1010     Br  0.16734657  0.07234752  0.41280493    -0.01230
C1011       C  0.82910825  0.98106453  0.36435355    -0.02360
C1012       C  0.86732906  0.99992371  0.36332260     0.07330
C1013       C  0.87939849  0.01777150  0.32608593    -0.02470
C1014       C  0.85321055  0.01771477  0.29254338    -0.02470
C1015       C  0.81560144  0.99827662  0.29425406     0.07460
C1016       C  0.80576172  0.97686023  0.32937626    -0.02670
Br1017     Br  0.75687552  0.94538967  0.33050101    -0.01220
Br1018     Br  0.80436782  0.96716411  0.41397095    -0.01290
Br1019     Br  0.86715407  0.04658381  0.24446966    -0.01250
Br1020     Br  0.92919656  0.04759654  0.32075403    -0.01230
C1021       C  0.12854263  0.84229166  0.54332223    -0.02360
C1022       C  0.13096535  0.87034815  0.51189645     0.07330
C1023       C  0.16529160  0.87299595  0.48737205    -0.02470
C1024       C  0.19722692  0.84711254  0.49392008    -0.02470
C1025       C  0.19561990  0.82035513  0.52663754     0.07460
C1026       C  0.16195466  0.81899441  0.55211993    -0.02670
Br1027     Br  0.16165207  0.78480521  0.59879646    -0.01220
Br1028     Br  0.08002903  0.83495867  0.57454353    -0.01290
Br1029     Br  0.24079465  0.84656739  0.45533370    -0.01250
Br1030     Br  0.16727449  0.90971216  0.44257221    -0.01230
C1031       C  0.85982792  0.79585281  0.45392015    -0.02360
C1032       C  0.82078032  0.80648294  0.44126605     0.07330
C1033       C  0.81331524  0.84743791  0.43822431    -0.02470
C1034       C  0.83101802  0.87249494  0.46670936    -0.02470
C1035       C  0.86812849  0.86157471  0.48383644     0.07460
C1036       C  0.88222630  0.82215406  0.47774958    -0.02670
Br1037     Br  0.92822982  0.80080197  0.50599664    -0.01220
Br1038     Br  0.88576634  0.74893618  0.43370612    -0.01290
Br1039     Br  0.79695960  0.91006562  0.49393555    -0.01250
Br1040     Br  0.77078013  0.86559625  0.40386593    -0.01230
C1041       C  0.85947542  0.15326994  0.53705634    -0.02360
C1042       C  0.86050936  0.12405564  0.50710506     0.07330
C1043       C  0.83383959  0.12464842  0.47455405    -0.02470
C1044       C  0.80743440  0.15637922  0.47072342    -0.02470
C1045       C  0.80640403  0.18547715  0.50078577     0.07460
C1046       C  0.83123637  0.18346689  0.53461713    -0.02670
Br1047     Br  0.82603417  0.22132268  0.57793612    -0.01220
Br1048     Br  0.89662862  0.15222216  0.58119981    -0.01290
Br1049     Br  0.77426022  0.16109691  0.42358640    -0.01250
Br1050     Br  0.83453608  0.08352108  0.43418291    -0.01230
C1051       C  0.15499396  0.12740445  0.55259099    -0.02360
C1052       C  0.12643780  0.13466432  0.52206940     0.07330
C1053       C  0.11620095  0.17435838  0.51250825    -0.02470
C1054       C  0.13313723  0.20571470  0.53418674    -0.02470
C1055       C  0.16671804  0.19866762  0.55867653     0.07460
C1056       C  0.17262090  0.15968275  0.57267506    -0.02670
Br1057     Br  0.20600726  0.15151105  0.61877763    -0.01220
Br1058     Br  0.17216851  0.07445257  0.56693097    -0.01290
Br1059     Br  0.10255135  0.25399187  0.53943331    -0.01250
Br1060     Br  0.07964705  0.18672095  0.46928472    -0.01230
C1061       C  0.96598843  0.65141961  0.15633950    -0.02360
C1062       C  0.00125993  0.64252198  0.13449673     0.07330
C1063       C  0.03295925  0.67127107  0.13433414    -0.02470
C1064       C  0.02979904  0.70735230  0.15636476    -0.02470
C1065       C  0.99457353  0.71629191  0.17834743     0.07460
C1066       C  0.96184664  0.68878397  0.17592192    -0.02670
Br1067     Br  0.91271987  0.70074877  0.20428051    -0.01220
Br1068     Br  0.92399302  0.61153819  0.16144378    -0.01290
Br1069     Br  0.07563408  0.74285612  0.16049418    -0.01250
Br1070     Br  0.08320560  0.65894342  0.10811552    -0.01230
C1071       C  0.96333948  0.84424430  0.30360841    -0.02360
C1072       C  0.00051973  0.83365159  0.28576408     0.07330
C1073       C  0.03625081  0.84801939  0.30417333    -0.02470
C1074       C  0.03516652  0.86584134  0.34254251    -0.02470
C1075       C  0.99810832  0.87411590  0.36147410     0.07460
C1076       C  0.96213391  0.86488487  0.34070152    -0.02670
Br1077     Br  0.91103685  0.87894226  0.36424646    -0.01220
Br1078     Br  0.91403879  0.82679386  0.27872358    -0.01290
Br1079     Br  0.08469780  0.87628899  0.37079318    -0.01250
Br1080     Br  0.08734774  0.83676880  0.27918492    -0.01230
C1081       C  0.96303746  0.34271232  0.86711795    -0.02360
C1082       C  0.99987172  0.36260477  0.87482518     0.07330
C1083       C  0.03578692  0.34470572  0.86091237    -0.02470
C1084       C  0.03455437  0.30876003  0.83826958    -0.02470
C1085       C  0.99741163  0.28996169  0.82881207     0.07460
C1086       C  0.96199146  0.30619333  0.84577255    -0.02670
Br1087     Br  0.91110755  0.27988574  0.83571765    -0.01220
Br1088     Br  0.91333263  0.36759030  0.88252904    -0.01290
Br1089     Br  0.08373147  0.28579667  0.81850074    -0.01250
Br1090     Br  0.08669064  0.37065843  0.87112225    -0.00090
C1091       C  0.96739002  0.12753905  0.67600725    -0.02360
C1092       C  0.99750940  0.12894112  0.64583670     0.07330
C1093       C  0.03123794  0.15407214  0.65220394    -0.02470
C1094       C  0.03489260  0.17691519  0.68772389    -0.02470
C1095       C  0.00327331  0.17802700  0.71640158     0.07460
C1096       C  0.97020712  0.15186744  0.71067307    -0.02670
Br1097     Br  0.92663564  0.15274780  0.74885568    -0.01220
Br1098     Br  0.91935206  0.09617520  0.66759911    -0.01290
Br1099     Br  0.08125174  0.21124490  0.69508954    -0.01250
Br1100     Br  0.07121780  0.15962430  0.61088981    -0.01230
C1101       C  0.98047540  0.70977932  0.85777821    -0.02360
C1102       C  0.01099696  0.71440681  0.82887218     0.07330
C1103       C  0.04319128  0.68661733  0.82922339    -0.02470
C1104       C  0.04167820  0.65191529  0.85369957    -0.02470
C1105       C  0.00884375  0.64523578  0.87987930     0.07460
C1106       C  0.97988415  0.67618893  0.88360499    -0.02670
Br1107     Br  0.93787701  0.67270433  0.92309218    -0.01220
Br1108     Br  0.93709245  0.74780988  0.85904507    -0.01290
Br1109     Br  0.08517028  0.61406385  0.85199554    -0.01250
Br1110     Br  0.08751769  0.69447144  0.79257818    -0.01230
C1111       C  0.95731988  0.86098851  0.66232366    -0.02360
C1112       C  0.99538416  0.87341368  0.64776527     0.07330
C1113       C  0.02906125  0.86748148  0.67299279    -0.02470
C1114       C  0.02634315  0.84289935  0.70743690    -0.02470
C1115       C  0.98887445  0.82698391  0.71979371     0.07460
C1116       C  0.95401071  0.83941333  0.69872890    -0.02670
Br1117     Br  0.90171865  0.82286093  0.71820101    -0.01220
Br1118     Br  0.90946795  0.87451613  0.63285618    -0.01290
Br1119     Br  0.07453230  0.82856091  0.73595836    -0.01250
Br1120     Br  0.07869288  0.89460633  0.66190882    -0.01230
C1121       C  0.17656433  0.62726128  0.52965606    -0.02360
C1122       C  0.14503679  0.63137596  0.50140321     0.07330
C1123       C  0.15036287  0.65915485  0.47005240    -0.02470
C1124       C  0.18585870  0.68283278  0.46755331    -0.02470
C1125       C  0.21538124  0.68162769  0.49805432     0.07460
C1126       C  0.21105439  0.65252676  0.52825315    -0.02670
Br1127     Br  0.25092345  0.65008007  0.56992046    -0.01220
Br1128     Br  0.17111303  0.58942177  0.57283242    -0.01290
Br1129     Br  0.19236752  0.72088340  0.42457653    -0.01250
Br1130     Br  0.10836074  0.66631715  0.43132008    -0.01230
C1131       C  0.79280295  0.35293527  0.52114958    -0.02360
C1132       C  0.78768274  0.32766670  0.48800192     0.07330
C1133       C  0.81640127  0.32999402  0.45659906    -0.02470
C1134       C  0.85350546  0.34996277  0.46221953    -0.02470
C1135       C  0.85910137  0.37506285  0.49543993     0.07460
C1136       C  0.82729896  0.37791360  0.52385827    -0.02670
Br1137     Br  0.83172899  0.41365027  0.56853331    -0.01220
Br1138     Br  0.75429104  0.35089262  0.56439759    -0.01290
Br1139     Br  0.89677582  0.34154149  0.42484970    -0.01250
Br1140     Br  0.80676008  0.30069717  0.40785157    -0.01230
C1141       C  0.18375120  0.38593111  0.49924468    -0.02360
C1142       C  0.14337345  0.37390394  0.48883234     0.07330
C1143       C  0.13851662  0.33428186  0.47436613    -0.02470
C1144       C  0.17146727  0.30762634  0.47490858    -0.02470
C1145       C  0.20691516  0.31694955  0.49639882     0.07460
C1146       C  0.21363247  0.35686485  0.50692836    -0.02670
Br1147     Br  0.26342736  0.37113528  0.53287275    -0.01220
Br1148     Br  0.20157556  0.44115629  0.49954582    -0.01290
Br1149     Br  0.16818290  0.25680976  0.44803033    -0.01250
Br1150     Br  0.08774732  0.31490876  0.45352617    -0.01230
C1151       C  0.82689711  0.62612784  0.48716442    -0.02360
C1152       C  0.86282793  0.63372003  0.50918057     0.07330
C1153       C  0.86379342  0.66730508  0.53477453    -0.02470
C1154       C  0.83086198  0.69397706  0.53610525    -0.02470
C1155       C  0.79615347  0.68732709  0.51252064     0.07460
C1156       C  0.79373662  0.65223149  0.48968273    -0.02670
Br1157     Br  0.74584931  0.64267894  0.45834175    -0.01220
Br1158     Br  0.82356156  0.58262432  0.44953309    -0.01290
Br1159     Br  0.83477953  0.74233503  0.56717277    -0.01250
Br1160     Br  0.91005495  0.67745301  0.56809672    -0.01230
C1161       C  0.17662107  0.52040384  0.37585594    -0.02360
C1162       C  0.13794777  0.50352854  0.36730159     0.07330
C1163       C  0.13239742  0.48492144  0.32955115    -0.02470
C1164       C  0.16459555  0.48291237  0.30183201    -0.02470
C1165       C  0.20184650  0.50213819  0.30950201     0.07460
C1166       C  0.20806553  0.51952036  0.34717081    -0.02670
Br1167     Br  0.25919743  0.54517935  0.35800968    -0.01220
Br1168     Br  0.18630854  0.55000863  0.42450451    -0.01290
Br1169     Br  0.15728588  0.45577826  0.25138433    -0.01250
Br1170     Br  0.08045475  0.46427755  0.31313408    -0.01230
C1171       C  0.85007228  0.54007668  0.34729984    -0.02360
C1172       C  0.85652279  0.50837051  0.37433776     0.07330
C1173       C  0.82519710  0.47966867  0.37935910    -0.02470
C1174       C  0.78966582  0.48116177  0.35627153    -0.02470
C1175       C  0.78475136  0.51080875  0.32688231     0.07460
C1176       C  0.81437712  0.54144998  0.32402540    -0.02670
Br1177     Br  0.80799462  0.58323835  0.28491572    -0.01220
Br1178     Br  0.89053331  0.58113578  0.34119182    -0.01290
Br1179     Br  0.74895671  0.43989239  0.36144557    -0.01250
Br1180     Br  0.83191338  0.43560342  0.41534245    -0.01230
C1181       C  0.13888465  0.53294497  0.66441557    -0.02360
C1182       C  0.13804552  0.50350009  0.63414318     0.07330
C1183       C  0.17059430  0.47659192  0.63161082    -0.02470
C1184       C  0.20344995  0.47935122  0.65821473    -0.02470
C1185       C  0.20298782  0.50678892  0.69008995     0.07460
C1186       C  0.17092688  0.53430448  0.69232721    -0.02670
Br1187     Br  0.16906002  0.57137634  0.73632421    -0.01220
Br1188     Br  0.09545960  0.57056563  0.66901463    -0.01290
Br1189     Br  0.24751948  0.44227410  0.65422053    -0.01250
Br1190     Br  0.16712594  0.43137618  0.59642574    -0.01230
C1191       C  0.82604633  0.52066692  0.62531835    -0.02360
C1192       C  0.85947689  0.49461322  0.62930006     0.07330
C1193       C  0.85660916  0.46290560  0.65706560    -0.02470
C1194       C  0.82170950  0.45813372  0.68097224    -0.02470
C1195       C  0.79056425  0.48671403  0.68005765     0.07460
C1196       C  0.79224472  0.51697674  0.65093171    -0.02670
Br1197     Br  0.74954203  0.55573648  0.64913253    -0.01220
Br1198     Br  0.82722618  0.56399402  0.58722474    -0.01290
Br1199     Br  0.81775223  0.41438971  0.71835179    -0.01250
Br1200     Br  0.90032213  0.42581084  0.66287776    -0.01230
C1201       C  0.04324494  0.63947063  0.34928941    -0.02360
C1202       C  0.00963601  0.63717086  0.37477529     0.07330
C1203       C  0.97714305  0.66340905  0.37195789    -0.02470
C1204       C  0.97795637  0.69242000  0.34251667    -0.02470
C1205       C  0.01249005  0.69602184  0.31825173     0.07460
C1206       C  0.04541139  0.67038328  0.32184272    -0.02670
Br1207     Br  0.09305288  0.67793929  0.28937343    -0.01220
Br1208     Br  0.08562080  0.60027120  0.35119046    -0.01290
Br1209     Br  0.93085890  0.72495519  0.33371256    -0.01250
Br1210     Br  0.93059949  0.65752514  0.40650845    -0.01230
C1211       C  0.02512005  0.36237744  0.65280635    -0.02360
C1212       C  0.99426418  0.36600757  0.62469104     0.07330
C1213       C  0.95845033  0.34343686  0.62736557    -0.02470
C1214       C  0.95225137  0.31886316  0.66039233    -0.02470
C1215       C  0.98306968  0.31535775  0.68870287     0.07460
C1216       C  0.02010611  0.33586253  0.68428705    -0.02670
Br1217     Br  0.06521839  0.32572425  0.71910301    -0.01220
Br1218     Br  0.07459642  0.39287008  0.64740195    -0.01290
Br1219     Br  0.90190502  0.29018720  0.66711288    -0.01250
Br1220     Br  0.91770757  0.34663722  0.58660976    -0.01230
C1221       C  0.01963109  0.68662908  0.66830194    -0.02360
C1222       C  0.98411107  0.68772984  0.69138325     0.07330
C1223       C  0.95294089  0.65981357  0.68657542    -0.02470
C1224       C  0.95750840  0.62967950  0.65851734    -0.02470
C1225       C  0.99280589  0.62875525  0.63516576     0.07460
C1226       C  0.02359057  0.65741709  0.63930891    -0.02670
Br1227     Br  0.07130121  0.65648846  0.60581220    -0.01220
Br1228     Br  0.06352338  0.72396692  0.67729424    -0.01290
Br1229     Br  0.91467277  0.59125858  0.65089788    -0.01250
Br1230     Br  0.90418426  0.66356029  0.71798601    -0.01230
C1231       C  0.03275165  0.33195737  0.13328887    -0.02360
C1232       C  0.99949161  0.35817798  0.13204696     0.07330
C1233       C  0.96288450  0.34523543  0.14966771    -0.02470
C1234       C  0.96072268  0.30848771  0.17093766    -0.02470
C1235       C  0.99540287  0.28469965  0.17651221     0.07460
C1236       C  0.03067185  0.29571697  0.15522819    -0.02670
Br1237     Br  0.07764420  0.26257625  0.16007406    -0.01220
Br1238     Br  0.08220363  0.34668294  0.10642363    -0.01290
Br1239     Br  0.91055699  0.29111091  0.19436194    -0.01250
Br1240     Br  0.91566948  0.37808830  0.14471570    -0.01230
C1241       C  0.95649428  0.17339539  0.31813795    -0.02360
C1242       C  0.99067950  0.17711724  0.29284191     0.07330
C1243       C  0.02494231  0.15428416  0.30232342    -0.02470
C1244       C  0.02629005  0.13115730  0.33779551    -0.02470
C1245       C  0.99325737  0.12988397  0.36467576     0.07460
C1246       C  0.95787458  0.15039249  0.35383616    -0.02670
Br1247     Br  0.91144842  0.14757476  0.38833028    -0.01220
Br1248     Br  0.90859925  0.20267652  0.30496127    -0.01290
Br1249     Br  0.07509129  0.10376438  0.35116811    -0.01250
Br1250     Br  0.07178883  0.15825568  0.26821272    -0.01230
C1251       C  0.97843172  0.33560726  0.31821102    -0.02360
C1252       C  0.01581927  0.31681677  0.31236591     0.07330
C1253       C  0.05127542  0.33110271  0.33008538    -0.02470
C1254       C  0.04885294  0.36362240  0.35577425    -0.02470
C1255       C  0.01115104  0.38129438  0.36232139     0.07460
C1256       C  0.97665306  0.36947644  0.34165611    -0.02670
Br1257     Br  0.92773132  0.40044634  0.34456065    -0.01220
Br1258     Br  0.92928372  0.31420443  0.29596667    -0.01290
Br1259     Br  0.09691072  0.38553666  0.37995603    -0.01250
Br1260     Br  0.10226362  0.30592105  0.31944880    -0.01230
loop_ 
_geom_bond_atom_site_label_1 
_geom_bond_atom_site_label_2 
_geom_bond_distance 
_geom_bond_site_symmetry_2 
_ccdc_geom_bond_type 
C1            C2   1.388       .  A
C1            C6   1.440   1_455  A
C1         C1235   1.503   1_455  S
C2            C3   1.375       .  A
C2            H7   1.088       .  S
C3            C4   1.376       .  A
C3         C1252   1.433       .  S
C4            C5   1.391   1_455  A
C4            H8   1.087       .  S
C5            C6   1.442       .  A
C5         C1242   1.503       .  S
C6            H9   1.082       .  S
O10          C21   1.285       .  A
O10         Eu46   2.420       .  S
O11          C22   1.281       .  A
O11         Eu45   2.393       .  S
O12          C23   1.306       .  A
O12         Eu18   2.552       .  S
O13          C24   1.299       .  A
O13         Eu18   2.507   1_455  S
O14          C24   1.290       .  A
O14         Eu48   2.459       .  S
O15          C23   1.282       .  A
O15         Eu47   2.418       .  S
O16          C22   1.277       .  A
O16         Eu18   2.373   1_455  S
O17          C21   1.278       .  A
O17         Eu18   2.378   1_455  S
Eu18         O28   2.353   1_655  S
Eu18         O20   2.346       .  S
Eu18         O19   2.358   1_655  S
Eu18         O26   2.344       .  S
O19         Eu48   2.348       .  S
O19         Eu45   2.340       .  S
O20         Eu46   2.365   1_655  S
O20         Eu47   2.353       .  S
C21        C1255   1.419       .  S
C22        C1202   1.413       .  S
C23        C1172   1.507       .  S
C24        C1162   1.513       .  S
H25          O26   0.966       .  S
O26         Eu47   2.345       .  S
O26         Eu45   2.360   1_655  S
H27          O28   0.964       .  S
O28         Eu46   2.331       .  S
O28         Eu48   2.339       .  S
O29          C52   1.281       .  A
O29         Eu45   2.390   1_655  S
O30          C53   1.282       .  A
O30         Eu46   2.399   1_655  S
O31          C54   1.285       .  A
O31         Eu47   2.433       .  S
O32          C55   1.285       .  A
O32         Eu48   2.430       .  S
O33          C56   1.281       .  A
O33         Eu48   2.425       .  S
O34          C57   1.283       .  A
O34         Eu47   2.422       .  S
O35          C58   1.303       .  A
O35         Eu49   2.530   1_655  S
O36          C59   1.298       .  A
O36         Eu49   2.502       .  S
O37          C58   1.283       .  A
O37         Eu47   2.420       .  S
O38          C59   1.292       .  A
O38         Eu48   2.470       .  S
O39          C54   1.303       .  A
O39         Eu45   2.528   1_655  S
O40          C57   1.304       .  A
O40         Eu46   2.533   1_655  S
O41          C56   1.306       .  A
O41         Eu46   2.551       .  S
O42          C55   1.306       .  A
O42         Eu45   2.543       .  S
O43          C52   1.284       .  A
O43         Eu49   2.411   1_655  S
O44          C53   1.285       .  A
O44         Eu49   2.410   1_655  S
Eu45         O63   2.351       .  S
Eu45         O51   2.352   1_455  S
Eu46         O50   2.365       .  S
Eu46         O61   2.359   1_455  S
Eu47         O61   2.337       .  S
Eu47         O51   2.333       .  S
Eu48         O50   2.351       .  S
Eu48         O63   2.346       .  S
Eu49         O50   2.365       .  S
Eu49         O61   2.343   1_455  S
Eu49         O63   2.361       .  S
Eu49         O51   2.341   1_455  S
C52        C1225   1.427       .  S
C53        C1212   1.428       .  S
C54        C1152   1.507       .  S
C55        C1122   1.505       .  S
C56        C1142   1.528       .  S
C57        C1135   1.498       .  S
C58        C1192   1.500       .  S
C59        C1182   1.503       .  S
H60          O61   0.965       .  S
H62          O63   0.966       .  S
C64          C65   1.389   1_455  A
C64          C69   1.441   1_455  A
C64        C1102   1.504       .  S
C65          C66   1.374       .  A
C65          H70   1.087       .  S
C66          C67   1.373       .  A
C66        C1222   1.432       .  S
C67          C68   1.390       .  A
C67          H71   1.087       .  S
C68          C69   1.442       .  A
C68        C1115   1.505       .  S
C69          H72   1.082   1_655  S
C73          C74   1.392       .  A
C73          C78   1.444   1_655  A
C73        C1085   1.508       .  S
C74          C75   1.377       .  A
C74          H79   1.087       .  S
C75          C76   1.375       .  A
C75        C1215   1.439       .  S
C76          C77   1.388       .  A
C76          H80   1.087       .  S
C77          C78   1.443   1_655  A
C77        C1095   1.508   1_655  S
C78          H81   1.082       .  S
C82          C83   1.446       .  A
C82          C87   1.386   1_655  A
C82        C1065   1.506       .  S
C83          C84   1.445   1_655  A
C83          H88   1.082       .  S
C84          C85   1.386       .  A
C84        C1072   1.504       .  S
C85          C86   1.367       .  A
C85          H89   1.088       .  S
C86          C87   1.371       .  A
C86        C1205   1.425       .  S
C87          H90   1.087       .  S
O91         C102   1.307       .  A
O91        Eu127   2.552       .  S
O92         C103   1.309       .  A
O92        Eu126   2.565       .  S
O93         C104   1.283       .  A
O93         Eu99   2.430   1_455  S
O94         C105   1.279       .  A
O94         Eu99   2.411   1_565  S
O95         C105   1.311       .  A
O95        Eu129   2.574       .  S
O96         C104   1.301       .  A
O96        Eu128   2.518       .  S
O97         C103   1.282       .  A
O97         Eu99   2.420   1_565  S
O98         C102   1.285       .  A
O98         Eu99   2.437       .  S
Eu99        O109   2.344       .  S
Eu99        O101   2.338   1_655  S
Eu99        O100   2.351   1_545  S
Eu99        O107   2.349   1_645  S
O100       Eu129   2.347       .  S
O100       Eu126   2.347       .  S
O101       Eu127   2.357   1_455  S
O101       Eu128   2.355       .  S
C102       C1245   1.509       .  S
C103       C1075   1.502       .  S
C104       C1002   1.508       .  S
C105       C1012   1.527       .  S
H106        O107   0.966       .  S
O107       Eu128   2.356   1_565  S
O107       Eu126   2.379   1_455  S
H108        O109   0.966       .  S
O109       Eu127   2.360       .  S
O109       Eu129   2.370   1_545  S
O110        C133   1.313       .  A
O110       Eu126   2.583       .  S
O111        C134   1.307       .  A
O111       Eu127   2.551       .  S
O112        C135   1.288       .  A
O112       Eu128   2.431   1_565  S
O113        C136   1.289       .  A
O113       Eu129   2.443       .  S
O114        C137   1.282       .  A
O114       Eu129   2.397   1_545  S
O115        C138   1.287       .  A
O115       Eu128   2.435       .  S
O116        C139   1.288       .  A
O116       Eu130   2.456   1_445  S
O117        C140   1.276       .  A
O117       Eu130   2.405       .  S
O118        C139   1.298       .  A
O118       Eu128   2.503       .  S
O119        C140   1.309       .  A
O119       Eu129   2.564       .  S
O120        C135   1.281       .  A
O120       Eu126   2.395   1_455  S
O121        C138   1.287       .  A
O121       Eu127   2.421   1_455  S
O122        C137   1.285       .  A
O122       Eu127   2.412       .  S
O123        C136   1.283       .  A
O123       Eu126   2.417       .  S
O124        C133   1.281   1_455  A
O124       Eu130   2.412   1_455  S
O125        C134   1.287       .  A
O125       Eu130   2.452   1_545  S
Eu126       O144   2.347       .  S
Eu126       O132   2.361   1_655  S
Eu127       O131   2.362       .  S
Eu127       O142   2.355   1_655  S
Eu128       O142   2.360       .  S
Eu128       O132   2.357   1_545  S
Eu129       O131   2.376   1_565  S
Eu129       O144   2.353       .  S
Eu130       O131   2.349   1_565  S
Eu130       O142   2.325   1_665  S
Eu130       O144   2.368       .  S
Eu130       O132   2.344   1_655  S
C133       C1112   1.508       .  S
C134       C1092   1.515       .  S
C135       C1022   1.445       .  S
C136       C1035   1.482       .  S
C137       C1042   1.429       .  S
C138       C1052   1.465       .  S
C139        C995   1.495   1_545  S
C140        C982   1.525       .  S
H141        O142   0.965       .  S
H143        O144   0.965       .  S
C145        C146   1.395       .  A
C145        C150   1.428       .  A
C145       C1145   1.501       .  S
C146        C147   1.388       .  A
C146        H151   1.078       .  S
C147        C148   1.401       .  A
C147       C1055   1.486       .  S
C148        C149   1.402       .  A
C148        H152   1.083       .  S
C149        C150   1.433       .  A
C149        C972   1.523       .  S
C150        H153   1.078       .  S
C154        C155   1.393       .  A
C154        C159   1.433       .  A
C154       C1132   1.494       .  S
C155        C156   1.372       .  A
C155        H160   1.086       .  S
C156        C157   1.368       .  A
C156       C1045   1.434       .  S
C157        C158   1.390       .  A
C157        H161   1.087       .  S
C158        C159   1.431       .  A
C158        C962   1.489       .  S
C159        H162   1.082       .  S
C163        C164   1.391       .  A
C163        C168   1.420       .  A
C163        C952   1.494       .  S
C164        C165   1.406       .  A
C164        H169   1.078       .  S
C165        C166   1.391       .  A
C165       C1032   1.501       .  S
C166        C167   1.396       .  A
C166        H170   1.074       .  S
C167        C168   1.422       .  A
C167       C1155   1.491       .  S
C168        H171   1.082       .  S
C172        C173   1.390       .  A
C172        C177   1.432       .  A
C172       C1125   1.500       .  S
C173        C174   1.381       .  A
C173        H178   1.086       .  S
C174        C175   1.378       .  A
C174       C1025   1.452       .  S
C175        C176   1.396       .  A
C175        H179   1.086       .  S
C176        C177   1.435       .  A
C176        C942   1.498       .  S
C177        H180   1.082       .  S
C181        C182   1.432       .  A
C181        C186   1.400       .  A
C181        C922   1.495       .  S
C182        C183   1.431       .  A
C182        H187   1.082   1_545  S
C183        C184   1.395       .  A
C183       C1015   1.502   1_545  S
C184        C185   1.384       .  A
C184        H188   1.087       .  S
C185        C186   1.380       .  A
C185        C932   1.458       .  S
C186        H189   1.086       .  S
O190        C201   1.308       .  A
O190       Eu226   2.557   1_545  S
O191        C202   1.308       .  A
O191       Eu225   2.555       .  S
O192        C203   1.286       .  A
O192       Eu198   2.441       .  S
O193        C204   1.291       .  A
O193       Eu198   2.470       .  S
O194        C204   1.303       .  A
O194       Eu228   2.535       .  S
O195        C203   1.311       .  A
O195       Eu227   2.567       .  S
O196        C202   1.279       .  A
O196       Eu198   2.404       .  S
O197        C201   1.279       .  A
O197       Eu198   2.413       .  S
Eu198       O208   2.348       .  S
Eu198       O200   2.355       .  S
Eu198       O199   2.338       .  S
Eu198       O206   2.356       .  S
O199       Eu228   2.349       .  S
O199       Eu225   2.355       .  S
O200       Eu226   2.358   1_545  S
O200       Eu227   2.379       .  S
C201        C975   1.509       .  S
C202        C965   1.501       .  S
C203        C872   1.515       .  S
C204        C852   1.510       .  S
H205        O206   0.965       .  S
O206       Eu227   2.351       .  S
O206       Eu225   2.343       .  S
H207        O208   0.966       .  S
O208       Eu226   2.366   1_545  S
O208       Eu228   2.385       .  S
O209        C232   1.307       .  A
O209       Eu225   2.557   1_565  S
O210        C233   1.306       .  A
O210       Eu226   2.548       .  S
O211        C234   1.290       .  A
O211       Eu227   2.460       .  S
O212        C235   1.293       .  A
O212       Eu228   2.455       .  S
O213        C236   1.287       .  A
O213       Eu228   2.434   1_565  S
O214        C237   1.287       .  A
O214       Eu227   2.424   1_565  S
O215        C238   1.282       .  A
O215       Eu229   2.419       .  S
O216        C239   1.283       .  A
O216       Eu229   2.438       .  S
O217        C238   1.311       .  A
O217       Eu227   2.567   1_565  S
O218        C239   1.306       .  A
O218       Eu228   2.551   1_565  S
O219        C234   1.273       .  A
O219       Eu225   2.385       .  S
O220        C237   1.285       .  A
O220       Eu226   2.430       .  S
O221        C236   1.284       .  A
O221       Eu226   2.414       .  S
O222        C235   1.277       .  A
O222       Eu225   2.377       .  S
O223        C232   1.282       .  A
O223       Eu229   2.416       .  S
O224        C233   1.285       .  A
O224       Eu229   2.437       .  S
Eu225       O243   2.369   1_545  S
Eu225       O231   2.349   1_545  S
Eu226       O230   2.362       .  S
Eu226       O241   2.363       .  S
Eu227       O241   2.365   1_545  S
Eu227       O231   2.357   1_545  S
Eu228       O230   2.348   1_545  S
Eu228       O243   2.360   1_545  S
Eu229       O230   2.330       .  S
Eu229       O241   2.345       .  S
Eu229       O243   2.351       .  S
Eu229       O231   2.355       .  S
C232        C955   1.512       .  S
C233        C945   1.503       .  S
C234        C905   1.488       .  S
C235        C935   1.436       .  S
C236        C895   1.459       .  S
C237        C915   1.470       .  S
C238        C882   1.513       .  S
C239        C865   1.528       .  S
H240        O241   0.965       .  S
H242        O243   0.966       .  S
C244        C245   1.426       .  A
C244        C249   1.397       .  A
C244        C842   1.495       .  S
C245        C246   1.426       .  A
C245        H250   1.081   1_565  S
C246        C247   1.399       .  A
C246        C992   1.506       .  S
C247        C248   1.397       .  A
C247        H251   1.084       .  S
C248        C249   1.389       .  A
C248        C912   1.481       .  S
C249        H252   1.079       .  S
C253        C254   1.421   1_545  A
C253        C258   1.396       .  A
C253        C832   1.501       .  S
C254        C255   1.423   1_565  A
C254        H259   1.081       .  S
C255        C256   1.396       .  A
C255        C985   1.495   1_545  S
C256        C257   1.395       .  A
C256        H260   1.069       .  S
C257        C258   1.404       .  A
C257        C902   1.500       .  S
C258        H261   1.081       .  S
C262        C263   1.424       .  A
C262        C267   1.400   1_545  A
C262        C825   1.489       .  S
C263        C264   1.424       .  A
C263        H268   1.082       .  S
C264        C265   1.395   1_545  A
C264       C1005   1.495       .  S
C265        C266   1.388       .  A
C265        H269   1.085       .  S
C266        C267   1.389       .  A
C266        C892   1.471       .  S
C267        H270   1.086       .  S
O271        C282   1.312       .  A
O271       Eu307   2.580       .  S
O272        C283   1.304       .  A
O272       Eu306   2.532       .  S
O273        C284   1.289       .  A
O273       Eu279   2.472   1_565  S
O274        C285   1.288       .  A
O274       Eu279   2.450       .  S
O275        C285   1.301       .  A
O275       Eu309   2.515       .  S
O276        C284   1.298       .  A
O276       Eu308   2.514       .  S
O277        C283   1.285       .  A
O277       Eu279   2.438   1_556  S
O278        C282   1.279       .  A
O278       Eu279   2.394       .  S
Eu279       O289   2.362       .  S
Eu279       O281   2.356   1_545  S
Eu279       O280   2.357   1_554  S
Eu279       O287   2.327   1_544  S
O280       Eu309   2.360   1_556  S
O280       Eu306   2.349       .  S
O281       Eu307   2.364   1_565  S
O281       Eu308   2.352       .  S
C282        C925   1.503       .  S
C283        C835   1.497       .  S
C284        C765   1.538       .  S
C285        C745   1.511       .  S
H286        O287   0.966       .  S
O287       Eu308   2.357   1_556  S
O287       Eu306   2.366   1_565  S
H288        O289   0.966       .  S
O289       Eu307   2.353       .  S
O289       Eu309   2.361       .  S
O290        C313   1.304       .  A
O290       Eu306   2.540   1_565  S
O291        C314   1.308       .  A
O291       Eu307   2.552       .  S
O292        C315   1.286       .  A
O292       Eu308   2.422   1_556  S
O293        C316   1.277       .  A
O293       Eu309   2.375   1_556  S
O294        C317   1.278       .  A
O294       Eu309   2.381       .  S
O295        C318   1.291       .  A
O295       Eu308   2.447       .  S
O296        C319   1.287       .  A
O296       Eu310   2.440       .  S
O297        C320   1.283       .  A
O297       Eu310   2.422   1_545  S
O298        C319   1.296       .  A
O298       Eu308   2.493       .  S
O299        C320   1.304       .  A
O299       Eu309   2.539       .  S
O300        C315   1.280       .  A
O300       Eu306   2.383   1_565  S
O301        C318   1.281       .  A
O301       Eu307   2.395   1_565  S
O302        C317   1.283       .  A
O302       Eu307   2.404       .  S
O303        C316   1.289       .  A
O303       Eu306   2.440       .  S
O304        C313   1.284       .  A
O304       Eu310   2.429   1_556  S
O305        C314   1.281       .  A
O305       Eu310   2.418   1_545  S
Eu306       O324   2.346       .  S
Eu306       O312   2.361   1_545  S
Eu307       O311   2.346       .  S
Eu307       O322   2.361   1_545  S
Eu308       O322   2.351       .  S
Eu308       O312   2.361   1_554  S
Eu309       O311   2.332       .  S
Eu309       O324   2.348   1_554  S
Eu310       O311   2.340   1_565  S
Eu310       O322   2.331       .  S
Eu310       O324   2.337   1_564  S
Eu310       O312   2.334   1_554  S
C313        C845   1.515       .  S
C314        C822   1.515       .  S
C315        C792   1.419       .  S
C316        C782   1.429       .  S
C317        C812   1.421       .  S
C318        C802   1.437       .  S
C319        C752   1.486       .  S
C320        C775   1.500   1_554  S
H321        O322   0.965       .  S
H323        O324   0.965       .  S
C325        C326   1.391       .  A
C325        C330   1.444       .  A
C325        C855   1.510       .  S
C326        C327   1.374       .  A
C326        H331   1.087       .  S
C327        C328   1.372       .  A
C327        C815   1.432       .  S
C328        C329   1.388       .  A
C328        H332   1.087       .  S
C329        C330   1.444       .  A
C329        C732   1.504       .  S
C330        H333   1.082       .  S
C334        C335   1.397       .  A
C334        C339   1.440       .  A
C334        C862   1.506       .  S
C335        C336   1.379       .  A
C335        H340   1.086       .  S
C336        C337   1.390       .  A
C336        C805   1.454       .  S
C337        C338   1.399       .  A
C337        H341   1.086       .  S
C338        C339   1.441       .  A
C338        C725   1.521       .  S
C339        H342   1.082       .  S
C343        C344   1.392       .  A
C343        C348   1.441       .  A
C343        C885   1.505       .  S
C344        C345   1.374       .  A
C344        H349   1.087       .  S
C345        C346   1.368       .  A
C345        C795   1.427       .  S
C346        C347   1.387       .  A
C346        H350   1.088       .  S
C347        C348   1.441       .  A
C347        C712   1.498       .  S
C348        H351   1.082       .  S
C352        C353   1.392       .  A
C352        C357   1.439       .  A
C352        C875   1.501       .  S
C353        C354   1.375       .  A
C353        H358   1.087       .  S
C354        C355   1.374       .  A
C354        C785   1.436       .  S
C355        C356   1.389       .  A
C355        H359   1.087       .  S
C356        C357   1.438       .  A
C356        C702   1.500       .  S
C357        H360   1.082       .  S
O361        C372   1.309       .  A
O361       Eu397   2.562       .  S
O362        C373   1.306       .  A
O362       Eu396   2.548       .  S
O363        C374   1.277       .  A
O363       Eu369   2.404   1_655  S
O364        C375   1.278       .  A
O364       Eu369   2.407       .  S
O365        C375   1.309       .  A
O365       Eu399   2.562       .  S
O366        C374   1.311       .  A
O366       Eu398   2.567       .  S
O367        C373   1.287       .  A
O367       Eu369   2.453   1_556  S
O368        C372   1.282       .  A
O368       Eu369   2.422       .  S
Eu369       O379   2.367       .  S
Eu369       O371   2.338   1_455  S
Eu369       O370   2.324   1_554  S
Eu369       O377   2.358   1_454  S
O370       Eu399   2.342   1_556  S
O370       Eu396   2.347       .  S
O371       Eu397   2.353   1_655  S
O371       Eu398   2.348       .  S
C372       C1232   1.504   1_455  S
C373       C1082   1.510   1_455  S
C374        C632   1.518       .  S
C375        C655   1.519       .  S
H376        O377   0.966       .  S
O377       Eu398   2.364   1_556  S
O377       Eu396   2.376   1_655  S
H378        O379   0.966       .  S
O379       Eu397   2.375       .  S
O379       Eu399   2.361       .  S
O380        C403   1.311       .  A
O380       Eu396   2.570       .  S
O381        C404   1.309   1_655  A
O381       Eu397   2.564   1_655  S
O382        C405   1.288       .  A
O382       Eu398   2.427   1_556  S
O383        C406   1.289       .  A
O383       Eu399   2.457   1_556  S
O384        C407   1.297       .  A
O384       Eu399   2.469       .  S
O385        C408   1.286       .  A
O385       Eu398   2.432       .  S
O386        C409   1.291       .  A
O386       Eu400   2.472   1_655  S
O387        C410   1.282       .  A
O387       Eu400   2.433   1_556  S
O388        C409   1.303       .  A
O388       Eu398   2.528       .  S
O389        C410   1.301       .  A
O389       Eu399   2.511   1_556  S
O390        C405   1.282       .  A
O390       Eu396   2.399   1_655  S
O391        C408   1.278       .  A
O391       Eu397   2.399   1_655  S
O392        C407   1.283       .  A
O392       Eu397   2.414       .  S
O393        C406   1.281       .  A
O393       Eu396   2.414       .  S
O394        C403   1.282       .  A
O394       Eu400   2.420   1_556  S
O395        C404   1.284       .  A
O395       Eu400   2.430       .  S
Eu396       O414   2.341       .  S
Eu396       O402   2.354   1_455  S
Eu397       O401   2.353       .  S
Eu397       O412   2.358   1_455  S
Eu398       O412   2.364       .  S
Eu398       O402   2.359   1_554  S
Eu399       O401   2.363       .  S
Eu399       O414   2.375   1_554  S
Eu400       O401   2.345       .  S
Eu400       O412   2.352   1_455  S
Eu400       O414   2.368   1_554  S
Eu400       O402   2.335   1_454  S
C403       C1105   1.513       .  S
C404       C1062   1.512       .  S
C405        C662   1.438       .  S
C406        C675   1.490       .  S
C407        C682   1.468       .  S
C408        C692   1.477       .  S
C409        C622   1.509       .  S
C410        C645   1.510       .  S
H411        O412   0.966       .  S
H413        O414   0.965       .  S
C415        C416   1.397       .  A
C415        C420   1.428       .  A
C415       C1175   1.496       .  S
C416        C417   1.384       .  A
C416        H421   1.080       .  S
C417        C418   1.399       .  A
C417        C695   1.480       .  S
C418        C419   1.386       .  A
C418        H422   1.082       .  S
C419        C420   1.425       .  A
C419        C612   1.498       .  S
C420        H423   1.082       .  S
C424        C425   1.398       .  A
C424        C429   1.422       .  A
C424       C1165   1.497       .  S
C425        C426   1.398       .  A
C425        H430   1.083       .  S
C426        C427   1.388       .  A
C426        C685   1.485       .  S
C427        C428   1.402       .  A
C427        H431   1.083       .  S
C428        C429   1.422       .  A
C428        C602   1.494       .  S
C429        H432   1.082       .  S
C433        C434   1.395       .  A
C433        C438   1.421       .  A
C433       C1185   1.495       .  S
C434        C435   1.394       .  A
C434        H439   1.074       .  S
C435        C436   1.404       .  A
C435        C672   1.498       .  S
C436        C437   1.397       .  A
C436        H440   1.080       .  S
C437        C438   1.422       .  A
C437        C592   1.498       .  S
C438        H441   1.082       .  S
C442        C443   1.393       .  A
C442        C447   1.428       .  A
C442       C1195   1.489       .  S
C443        C444   1.379       .  A
C443        H448   1.086       .  S
C444        C445   1.385       .  A
C444        C665   1.453       .  S
C445        C446   1.398       .  A
C445        H449   1.086       .  S
C446        C447   1.427       .  A
C446        C582   1.492       .  S
C447        H450   1.082       .  S
C451        C452   1.433       .  A
C451        C456   1.396       .  A
C451        C652   1.503   1_556  S
C452        C453   1.434       .  A
C452        H457   1.082   1_556  S
C453        C454   1.394       .  A
C453        C772   1.493       .  S
C454        C455   1.365       .  A
C454        H458   1.086       .  S
C455        C456   1.376       .  A
C455        C572   1.442       .  S
C456        H459   1.086       .  S
O460        C471   1.309       .  A
O460       Eu496   2.567       .  S
O461        C472   1.305       .  A
O461       Eu495   2.539       .  S
O462        C473   1.281       .  A
O462       Eu468   2.410       .  S
O463        C474   1.288       .  A
O463       Eu468   2.450       .  S
O464        C474   1.300       .  A
O464       Eu498   2.512       .  S
O465        C473   1.310       .  A
O465       Eu497   2.562   1_554  S
O466        C472   1.282       .  A
O466       Eu468   2.437       .  S
O467        C471   1.284       .  A
O467       Eu468   2.430       .  S
Eu468       O478   2.346       .  S
Eu468       O470   2.360       .  S
Eu468       O469   2.335       .  S
Eu468       O476   2.360       .  S
O469       Eu498   2.350       .  S
O469       Eu495   2.347       .  S
O470       Eu496   2.370       .  S
O470       Eu497   2.372   1_554  S
C471        C735   1.513       .  S
C472        C722   1.533       .  S
C473        C615   1.506       .  S
C474        C605   1.502       .  S
H475        O476   0.965       .  S
O476       Eu497   2.354   1_554  S
O476       Eu495   2.349       .  S
H477        O478   0.966       .  S
O478       Eu496   2.360       .  S
O478       Eu498   2.372       .  S
O479        C502   1.307       .  A
O479       Eu495   2.550   1_556  S
O480        C503   1.309       .  A
O480       Eu496   2.569   1_556  S
O481        C504   1.291       .  A
O481       Eu497   2.465       .  S
O482        C505   1.288       .  A
O482       Eu498   2.441       .  S
O483        C506   1.282       .  A
O483       Eu498   2.402       .  S
O484        C507   1.290       .  A
O484       Eu497   2.443       .  S
O485        C508   1.284       .  A
O485       Eu499   2.430       .  S
O486        C509   1.283       .  A
O486       Eu499   2.431       .  S
O487        C508   1.306       .  A
O487       Eu497   2.541       .  S
O488        C509   1.303       .  A
O488       Eu498   2.533   1_556  S
O489        C504   1.279       .  A
O489       Eu495   2.407   1_556  S
O490        C507   1.286       .  A
O490       Eu496   2.431   1_556  S
O491        C506   1.285       .  A
O491       Eu496   2.414       .  S
O492        C505   1.285       .  A
O492       Eu495   2.416       .  S
O493        C502   1.283       .  A
O493       Eu499   2.425       .  S
O494        C503   1.283       .  A
O494       Eu499   2.430       .  S
Eu495       O513   2.354   1_554  S
Eu495       O501   2.344   1_554  S
Eu496       O500   2.376   1_554  S
Eu496       O511   2.349   1_554  S
Eu497       O511   2.362       .  S
Eu497       O501   2.353       .  S
Eu498       O500   2.366   1_554  S
Eu498       O513   2.353   1_554  S
Eu499       O500   2.346       .  S
Eu499       O511   2.347       .  S
Eu499       O513   2.354       .  S
Eu499       O501   2.336       .  S
C502        C715   1.499       .  S
C503        C705   1.509       .  S
C504        C565   1.493       .  S
C505        C555   1.466       .  S
C506        C575   1.431       .  S
C507        C545   1.473       .  S
C508        C585   1.509       .  S
C509        C595   1.515       .  S
H510        O511   0.965       .  S
H512        O513   0.966       .  S
C514        C515   1.429   1_556  A
C514        C519   1.399       .  A
C514        C762   1.512   1_556  S
C515        C516   1.432   1_554  A
C515        H520   1.079       .  S
C516        C517   1.405       .  A
C516        C625   1.522       .  S
C517        C518   1.400       .  A
C517        H521   1.081       .  S
C518        C519   1.397       .  A
C518        C562   1.503       .  S
C519        H522   1.071       .  S
C523        C524   1.414   1_554  A
C523        C528   1.400       .  A
C523        C755   1.484       .  S
C524        C525   1.415   1_556  A
C524        H529   1.083       .  S
C525        C526   1.400       .  A
C525        C642   1.487   1_554  S
C526        C527   1.399       .  A
C526        H530   1.083       .  S
C527        C528   1.382       .  A
C527        C552   1.480       .  S
C528        H531   1.082       .  S
C532        C533   1.420   1_556  A
C532        C537   1.396       .  A
C532        C742   1.496   1_556  S
C533        C534   1.421   1_554  A
C533        H538   1.082       .  S
C534        C535   1.397       .  A
C534        C635   1.490   1_556  S
C535        C536   1.391       .  A
C535        H539   1.079       .  S
C536        C537   1.404       .  A
C536        C542   1.490       .  S
C537        H540   1.083       .  S
C541        C542   1.405       .  A
C541        C546   1.404       .  A
C541       Br548   1.930       .  S
C542        C543   1.414       .  A
C543        C544   1.395       .  A
C543       Br550   1.929       .  S
C544        C545   1.410       .  A
C544       Br549   1.940   1_556  S
C545        C546   1.421       .  A
C546       Br547   1.931       .  S
C551        C552   1.404       .  A
C551        C556   1.402       .  A
C551       Br558   1.933       .  S
C552        C553   1.416       .  A
C553        C554   1.391       .  A
C553       Br560   1.929       .  S
C554        C555   1.407       .  A
C554       Br559   1.942   1_554  S
C555        C556   1.415       .  A
C556       Br557   1.915       .  S
C561        C562   1.404       .  A
C561        C566   1.406       .  A
C561       Br568   1.926       .  S
C562        C563   1.400       .  A
C563        C564   1.398       .  A
C563       Br570   1.929       .  S
C564        C565   1.433       .  A
C564       Br569   1.940       .  S
C565        C566   1.427       .  A
C566       Br567   1.935       .  S
C571        C572   1.410   1_554  A
C571        C576   1.391       .  A
C571       Br578   1.935       .  S
C572        C573   1.399       .  A
C573        C574   1.386       .  A
C573       Br580   1.926       .  S
C574        C575   1.404   1_556  A
C574       Br579   1.931       .  S
C575        C576   1.405       .  A
C576       Br577   1.933       .  S
C581        C582   1.404       .  A
C581        C586   1.417       .  A
C581       Br588   1.926       .  S
C582        C583   1.406       .  A
C583        C584   1.409       .  A
C583       Br590   1.919       .  S
C584        C585   1.413       .  A
C584       Br589   1.919       .  S
C585        C586   1.429       .  A
C586       Br587   1.923       .  S
C591        C592   1.413       .  A
C591        C596   1.418       .  A
C591       Br598   1.928       .  S
C592        C593   1.405       .  A
C593        C594   1.416       .  A
C593       Br600   1.933       .  S
C594        C595   1.430       .  A
C594       Br599   1.934       .  S
C595        C596   1.418       .  A
C596       Br597   1.929       .  S
C601        C602   1.406       .  A
C601        C606   1.410       .  A
C601       Br608   1.930       .  S
C602        C603   1.415       .  A
C603        C604   1.419       .  A
C603       Br610   1.930       .  S
C604        C605   1.416       .  A
C604       Br609   1.930       .  S
C605        C606   1.417       .  A
C606       Br607   1.927       .  S
C611        C612   1.418       .  A
C611        C616   1.420       .  A
C611       Br618   1.927       .  S
C612        C613   1.409       .  A
C613        C614   1.414       .  A
C613       Br620   1.933       .  S
C614        C615   1.422       .  A
C614       Br619   1.930       .  S
C615        C616   1.414       .  A
C616       Br617   1.928       .  S
C621        C622   1.403   1_556  A
C621        C626   1.404       .  A
C621       Br628   1.915       .  S
C622        C623   1.420       .  A
C623        C624   1.428       .  A
C623       Br630   1.908       .  S
C624        C625   1.416   1_554  A
C624       Br629   1.923       .  S
C625        C626   1.418       .  A
C626       Br627   1.931       .  S
C631        C632   1.432   1_556  A
C631        C636   1.417       .  A
C631       Br638   1.932       .  S
C632        C633   1.411       .  A
C633        C634   1.414       .  A
C633       Br640   1.902       .  S
C634        C635   1.410       .  A
C634       Br639   1.933       .  S
C635        C636   1.403   1_554  A
C636       Br637   1.929       .  S
C641        C642   1.403   1_554  A
C641        C646   1.410       .  A
C641       Br648   1.934       .  S
C642        C643   1.410       .  A
C643        C644   1.412       .  A
C643       Br650   1.931       .  S
C644        C645   1.419       .  A
C644       Br649   1.933       .  S
C645        C646   1.432   1_556  A
C646       Br647   1.939       .  S
C651        C652   1.405   1_556  A
C651        C656   1.423       .  A
C651       Br658   1.927       .  S
C652        C653   1.415       .  A
C653        C654   1.404       .  A
C653       Br660   1.934       .  S
C654        C655   1.408       .  A
C654       Br659   1.910       .  S
C655        C656   1.438   1_554  A
C656       Br657   1.929       .  S
C661        C662   1.411       .  A
C661        C666   1.399       .  A
C661       Br668   1.931       .  S
C662        C663   1.398       .  A
C663        C664   1.382       .  A
C663       Br670   1.937       .  S
C664        C665   1.408       .  A
C664       Br669   1.919       .  S
C665        C666   1.404       .  A
C666       Br667   1.929       .  S
C671        C672   1.398       .  A
C671        C676   1.405       .  A
C671       Br678   1.920       .  S
C672        C673   1.399       .  A
C673        C674   1.394       .  A
C673       Br680   1.929       .  S
C674        C675   1.430       .  A
C674       Br679   1.939       .  S
C675        C676   1.428       .  A
C676       Br677   1.929       .  S
C681        C682   1.389       .  A
C681        C686   1.382       .  A
C681       Br688   1.909       .  S
C682        C683   1.413       .  A
C683        C684   1.409       .  A
C683       Br690   1.922       .  S
C684        C685   1.411       .  A
C684       Br689   1.926       .  S
C685        C686   1.412       .  A
C686       Br687   1.922       .  S
C691        C692   1.411       .  A
C691        C696   1.392       .  A
C691       Br698   1.938       .  S
C692        C693   1.425       .  A
C693        C694   1.402       .  A
C693       Br700   1.950       .  S
C694        C695   1.418       .  A
C694       Br699   1.938       .  S
C695        C696   1.402       .  A
C696       Br697   1.937       .  S
C701        C702   1.415       .  A
C701        C706   1.416       .  A
C701       Br708   1.929       .  S
C702        C703   1.413       .  A
C703        C704   1.421       .  A
C703       Br710   1.927       .  S
C704        C705   1.416       .  A
C704       Br709   1.914       .  S
C705        C706   1.410       .  A
C706       Br707   1.914       .  S
C711        C712   1.416       .  A
C711        C716   1.422       .  A
C711       Br718   1.925       .  S
C712        C713   1.416       .  A
C713        C714   1.415       .  A
C713       Br720   1.929       .  S
C714        C715   1.410       .  A
C714       Br719   1.924       .  S
C715        C716   1.414       .  A
C716       Br717   1.927       .  S
C721        C722   1.418       .  A
C721        C726   1.410       .  A
C721       Br728   1.933       .  S
C722        C723   1.443       .  A
C723        C724   1.427       .  A
C723       Br730   1.936       .  S
C724        C725   1.406       .  A
C724       Br729   1.927       .  S
C725        C726   1.416       .  A
C726       Br727   1.911       .  S
C731        C732   1.410       .  A
C731        C736   1.418       .  A
C731       Br738   1.930       .  S
C732        C733   1.421       .  A
C733        C734   1.424       .  A
C733       Br740   1.925       .  S
C734        C735   1.413       .  A
C734       Br739   1.928       .  S
C735        C736   1.420       .  A
C736       Br737   1.922       .  S
C741        C742   1.414       .  A
C741        C746   1.417       .  A
C741       Br748   1.931       .  S
C742        C743   1.406   1_554  A
C743        C744   1.414       .  A
C743       Br750   1.933       .  S
C744        C745   1.426   1_556  A
C744       Br749   1.931       .  S
C745        C746   1.419       .  A
C746       Br747   1.931       .  S
C751        C752   1.404       .  A
C751        C756   1.401       .  A
C751       Br758   1.914       .  S
C752        C753   1.408   1_554  A
C753        C754   1.416       .  A
C753       Br760   1.920       .  S
C754        C755   1.418   1_556  A
C754       Br759   1.930       .  S
C755        C756   1.406       .  A
C756       Br757   1.930       .  S
C761        C762   1.404       .  A
C761        C766   1.426       .  A
C761       Br768   1.926   1_554  S
C762        C763   1.413       .  A
C763        C764   1.415       .  A
C763       Br770   1.935       .  S
C764        C765   1.429       .  A
C764       Br769   1.935       .  S
C765        C766   1.440       .  A
C766       Br767   1.936       .  S
C771        C772   1.406   1_554  A
C771        C776   1.417       .  A
C771       Br778   1.927       .  S
C772        C773   1.418       .  A
C773        C774   1.407       .  A
C773       Br780   1.930       .  S
C774        C775   1.402       .  A
C774       Br779   1.921       .  S
C775        C776   1.422   1_556  A
C776       Br777   1.907       .  S
C781        C782   1.404       .  A
C781        C786   1.390       .  A
C781       Br788   1.926       .  S
C782        C783   1.401       .  A
C783        C784   1.387       .  A
C783       Br790   1.933       .  S
C784        C785   1.408       .  A
C784       Br789   1.934       .  S
C785        C786   1.401       .  A
C786       Br787   1.931       .  S
C791        C792   1.402       .  A
C791        C796   1.389       .  A
C791       Br798   1.916       .  S
C792        C793   1.397       .  A
C793        C794   1.381       .  A
C793       Br800   1.933       .  S
C794        C795   1.404       .  A
C794       Br799   1.926       .  S
C795        C796   1.398       .  A
C796       Br797   1.930       .  S
C801        C802   1.394       .  A
C801        C806   1.375       .  A
C801       Br808   1.930       .  S
C802        C803   1.415       .  A
C803        C804   1.404       .  A
C803       Br810   1.922       .  S
C804        C805   1.400       .  A
C804       Br809   1.924       .  S
C805        C806   1.403       .  A
C806       Br807   1.912       .  S
C811        C812   1.398       .  A
C811        C816   1.380       .  A
C811       Br818   1.935       .  S
C812        C813   1.407       .  A
C813        C814   1.391       .  A
C813       Br820   1.927       .  S
C814        C815   1.399       .  A
C814       Br819   1.930       .  S
C815        C816   1.408       .  A
C816       Br817   1.931       .  S
C821        C822   1.435   1_565  A
C821        C826   1.413       .  A
C821       Br828   1.931       .  S
C822        C823   1.418       .  A
C823        C824   1.415       .  A
C823       Br830   1.922       .  S
C824        C825   1.404       .  A
C824       Br829   1.926       .  S
C825        C826   1.400   1_545  A
C826       Br827   1.925       .  S
C831        C832   1.408   1_565  A
C831        C836   1.420       .  A
C831       Br838   1.924       .  S
C832        C833   1.416       .  A
C833        C834   1.405       .  A
C833       Br840   1.932       .  S
C834        C835   1.405       .  A
C834       Br839   1.920       .  S
C835        C836   1.421   1_545  A
C836       Br837   1.915       .  S
C841        C842   1.415   1_545  A
C841        C846   1.417       .  A
C841       Br848   1.931       .  S
C842        C843   1.403       .  A
C843        C844   1.416       .  A
C843       Br850   1.930       .  S
C844        C845   1.430       .  A
C844       Br849   1.930       .  S
C845        C846   1.416   1_565  A
C846       Br847   1.932       .  S
C851        C852   1.412       .  A
C851        C856   1.423       .  A
C851       Br858   1.918       .  S
C852        C853   1.408       .  A
C853        C854   1.419       .  A
C853       Br860   1.929       .  S
C854        C855   1.421       .  A
C854       Br859   1.928       .  S
C855        C856   1.416       .  A
C856       Br857   1.925       .  S
C861        C862   1.407       .  A
C861        C866   1.424       .  A
C861       Br868   1.928       .  S
C862        C863   1.409       .  A
C863        C864   1.412       .  A
C863       Br870   1.915       .  S
C864        C865   1.416       .  A
C864       Br869   1.920       .  S
C865        C866   1.438       .  A
C866       Br867   1.930       .  S
C871        C872   1.410       .  A
C871        C876   1.416       .  A
C871       Br878   1.907       .  S
C872        C873   1.420       .  A
C873        C874   1.422       .  A
C873       Br880   1.917       .  S
C874        C875   1.409       .  A
C874       Br879   1.927       .  S
C875        C876   1.416       .  A
C876       Br877   1.932       .  S
C881        C882   1.407       .  A
C881        C886   1.414       .  A
C881       Br888   1.914       .  S
C882        C883   1.425       .  A
C883        C884   1.423       .  A
C883       Br890   1.925       .  S
C884        C885   1.409       .  A
C884       Br889   1.925       .  S
C885        C886   1.416       .  A
C886       Br887   1.922       .  S
C891        C892   1.414   1_545  A
C891        C896   1.389       .  A
C891       Br898   1.917       .  S
C892        C893   1.408       .  A
C893        C894   1.400       .  A
C893       Br900   1.934       .  S
C894        C895   1.415       .  A
C894       Br899   1.931       .  S
C895        C896   1.407   1_565  A
C896       Br897   1.946       .  S
C901        C902   1.405       .  A
C901        C906   1.395       .  A
C901       Br908   1.931       .  S
C902        C903   1.416       .  A
C903        C904   1.405       .  A
C903       Br910   1.941       .  S
C904        C905   1.435       .  A
C904       Br909   1.953       .  S
C905        C906   1.416       .  A
C906       Br907   1.939       .  S
C911        C912   1.403       .  A
C911        C916   1.391       .  A
C911       Br918   1.923       .  S
C912        C913   1.404       .  A
C913        C914   1.402       .  A
C913       Br920   1.927       .  S
C914        C915   1.422       .  A
C914       Br919   1.935       .  S
C915        C916   1.413       .  A
C916       Br917   1.938   1_565  S
C921        C922   1.408       .  A
C921        C926   1.412       .  A
C921       Br928   1.929       .  S
C922        C923   1.409   1_545  A
C923        C924   1.419       .  A
C923       Br930   1.926       .  S
C924        C925   1.413   1_565  A
C924       Br929   1.913       .  S
C925        C926   1.420       .  A
C926       Br927   1.925       .  S
C931        C932   1.408       .  A
C931        C936   1.401       .  A
C931       Br938   1.927       .  S
C932        C933   1.418       .  A
C933        C934   1.382   1_545  A
C933       Br940   1.920   1_545  S
C934        C935   1.385   1_565  A
C934       Br939   1.933       .  S
C935        C936   1.404       .  A
C936       Br937   1.925       .  S
C941        C942   1.412       .  A
C941        C946   1.411       .  A
C941       Br948   1.931       .  S
C942        C943   1.415       .  A
C943        C944   1.422       .  A
C943       Br950   1.926       .  S
C944        C945   1.416       .  A
C944       Br949   1.926       .  S
C945        C946   1.411       .  A
C946       Br947   1.914       .  S
C951        C952   1.414       .  A
C951        C956   1.420       .  A
C951       Br958   1.927       .  S
C952        C953   1.405       .  A
C953        C954   1.412       .  A
C953       Br960   1.933       .  S
C954        C955   1.424       .  A
C954       Br959   1.926       .  S
C955        C956   1.415       .  A
C956       Br957   1.920       .  S
C961        C962   1.404       .  A
C961        C966   1.414       .  A
C961       Br968   1.928       .  S
C962        C963   1.417       .  A
C963        C964   1.412       .  A
C963       Br970   1.930       .  S
C964        C965   1.409       .  A
C964       Br969   1.919       .  S
C965        C966   1.423       .  A
C966       Br967   1.919       .  S
C971        C972   1.414       .  A
C971        C976   1.420       .  A
C971       Br978   1.925       .  S
C972        C973   1.423       .  A
C973        C974   1.412       .  A
C973       Br980   1.929       .  S
C974        C975   1.408       .  A
C974       Br979   1.931       .  S
C975        C976   1.427       .  A
C976       Br977   1.921       .  S
C981        C982   1.417       .  A
C981        C986   1.416       .  A
C981       Br988   1.929       .  S
C982        C983   1.441       .  A
C983        C984   1.416   1_565  A
C983       Br990   1.940   1_565  S
C984        C985   1.398   1_545  A
C984       Br989   1.929       .  S
C985        C986   1.417       .  A
C986       Br987   1.932       .  S
C991        C992   1.414   1_545  A
C991        C996   1.424       .  A
C991       Br998   1.924       .  S
C992        C993   1.416       .  A
C993        C994   1.401       .  A
C993      Br1000   1.933       .  S
C994        C995   1.402       .  A
C994       Br999   1.923       .  S
C995        C996   1.419   1_565  A
C996       Br997   1.920       .  S
C1001      C1002   1.428   1_565  A
C1001      C1006   1.416       .  A
C1001     Br1008   1.931       .  S
C1002      C1003   1.416       .  A
C1003      C1004   1.413       .  A
C1003     Br1010   1.933       .  S
C1004      C1005   1.415       .  A
C1004     Br1009   1.932       .  S
C1005      C1006   1.406   1_545  A
C1006     Br1007   1.931       .  S
C1011      C1012   1.412       .  A
C1011      C1016   1.413       .  A
C1011     Br1018   1.906       .  S
C1012      C1013   1.436   1_565  A
C1013      C1014   1.422       .  A
C1013     Br1020   1.931       .  S
C1014      C1015   1.404   1_545  A
C1014     Br1019   1.929       .  S
C1015      C1016   1.412       .  A
C1016     Br1017   1.927       .  S
C1021      C1022   1.411       .  A
C1021      C1026   1.392       .  A
C1021     Br1028   1.930       .  S
C1022      C1023   1.404       .  A
C1023      C1024   1.392       .  A
C1023     Br1030   1.939       .  S
C1024      C1025   1.415       .  A
C1024     Br1029   1.936       .  S
C1025      C1026   1.404       .  A
C1026     Br1027   1.936       .  S
C1031      C1032   1.412       .  A
C1031      C1036   1.400       .  A
C1031     Br1038   1.921       .  S
C1032      C1033   1.399       .  A
C1033      C1034   1.399       .  A
C1033     Br1040   1.925       .  S
C1034      C1035   1.410       .  A
C1034     Br1039   1.926       .  S
C1035      C1036   1.419       .  A
C1036     Br1037   1.939       .  S
C1041      C1042   1.403       .  A
C1041      C1046   1.386       .  A
C1041     Br1048   1.928       .  S
C1042      C1043   1.406       .  A
C1043      C1044   1.388       .  A
C1043     Br1050   1.932       .  S
C1044      C1045   1.403       .  A
C1044     Br1049   1.934       .  S
C1045      C1046   1.405       .  A
C1046     Br1047   1.937       .  S
C1051      C1052   1.418       .  A
C1051      C1056   1.399       .  A
C1051     Br1058   1.927       .  S
C1052      C1053   1.411       .  A
C1053      C1054   1.394       .  A
C1053     Br1060   1.937       .  S
C1054      C1055   1.407       .  A
C1054     Br1059   1.924       .  S
C1055      C1056   1.402       .  A
C1056     Br1057   1.923       .  S
C1061      C1062   1.412   1_655  A
C1061      C1066   1.421       .  A
C1061     Br1068   1.929       .  S
C1062      C1063   1.420       .  A
C1063      C1064   1.421       .  A
C1063     Br1070   1.929       .  S
C1064      C1065   1.413   1_455  A
C1064     Br1069   1.928       .  S
C1065      C1066   1.421       .  A
C1066     Br1067   1.929       .  S
C1071      C1072   1.417   1_655  A
C1071      C1076   1.423       .  A
C1071     Br1078   1.925       .  S
C1072      C1073   1.419       .  A
C1073      C1074   1.418       .  A
C1073     Br1080   1.928       .  S
C1074      C1075   1.411   1_455  A
C1074     Br1079   1.928       .  S
C1075      C1076   1.416       .  A
C1076     Br1077   1.929       .  S
C1081      C1082   1.412       .  A
C1081      C1086   1.418       .  A
C1081     Br1088   1.923       .  S
C1082      C1083   1.416   1_655  A
C1083      C1084   1.424       .  A
C1083     Br1090   1.925       .  S
C1084      C1085   1.416   1_455  A
C1084     Br1089   1.925       .  S
C1085      C1086   1.416       .  A
C1086     Br1087   1.929       .  S
C1091      C1092   1.419       .  A
C1091      C1096   1.423       .  A
C1091     Br1098   1.923       .  S
C1092      C1093   1.412   1_655  A
C1093      C1094   1.421       .  A
C1093     Br1100   1.921       .  S
C1094      C1095   1.421       .  A
C1094     Br1099   1.930       .  S
C1095      C1096   1.412   1_455  A
C1096     Br1097   1.927       .  S
C1101      C1102   1.406   1_655  A
C1101      C1106   1.418       .  A
C1101     Br1108   1.930       .  S
C1102      C1103   1.422       .  A
C1103      C1104   1.421       .  A
C1103     Br1110   1.928       .  S
C1104      C1105   1.412       .  A
C1104     Br1109   1.929       .  S
C1105      C1106   1.424   1_455  A
C1106     Br1107   1.921       .  S
C1111      C1112   1.411       .  A
C1111      C1116   1.420       .  A
C1111     Br1118   1.928       .  S
C1112      C1113   1.418   1_655  A
C1113      C1114   1.418       .  A
C1113     Br1120   1.909       .  S
C1114      C1115   1.409   1_455  A
C1114     Br1119   1.928       .  S
C1115      C1116   1.421       .  A
C1116     Br1117   1.928       .  S
C1121      C1122   1.420       .  A
C1121      C1126   1.418       .  A
C1121     Br1128   1.928       .  S
C1122      C1123   1.411       .  A
C1123      C1124   1.417       .  A
C1123     Br1130   1.923       .  S
C1124      C1125   1.418       .  A
C1124     Br1129   1.931       .  S
C1125      C1126   1.409       .  A
C1126     Br1127   1.928       .  S
C1131      C1132   1.407       .  A
C1131      C1136   1.415       .  A
C1131     Br1138   1.929       .  S
C1132      C1133   1.418       .  A
C1133      C1134   1.409       .  A
C1133     Br1140   1.933       .  S
C1134      C1135   1.408       .  A
C1134     Br1139   1.924       .  S
C1135      C1136   1.422       .  A
C1136     Br1137   1.923       .  S
C1141      C1142   1.440       .  A
C1141      C1146   1.418       .  A
C1141     Br1148   1.937       .  S
C1142      C1143   1.422       .  A
C1143      C1144   1.417       .  A
C1143     Br1150   1.933       .  S
C1144      C1145   1.414       .  A
C1144     Br1149   1.929       .  S
C1145      C1146   1.400       .  A
C1146     Br1147   1.926       .  S
C1151      C1152   1.425       .  A
C1151      C1156   1.413       .  A
C1151     Br1158   1.931       .  S
C1152      C1153   1.416       .  A
C1153      C1154   1.417       .  A
C1153     Br1160   1.929       .  S
C1154      C1155   1.415       .  A
C1154     Br1159   1.930       .  S
C1155      C1156   1.406       .  A
C1156     Br1157   1.932       .  S
C1161      C1162   1.428       .  A
C1161      C1166   1.416       .  A
C1161     Br1168   1.935       .  S
C1162      C1163   1.422       .  A
C1163      C1164   1.415       .  A
C1163     Br1170   1.933       .  S
C1164      C1165   1.413       .  A
C1164     Br1169   1.935       .  S
C1165      C1166   1.406       .  A
C1166     Br1167   1.931       .  S
C1171      C1172   1.412       .  A
C1171      C1176   1.421       .  A
C1171     Br1178   1.924       .  S
C1172      C1173   1.419       .  A
C1173      C1174   1.413       .  A
C1173     Br1180   1.918       .  S
C1174      C1175   1.407       .  A
C1174     Br1179   1.932       .  S
C1175      C1176   1.418       .  A
C1176     Br1177   1.928       .  S
C1181      C1182   1.416       .  A
C1181      C1186   1.418       .  A
C1181     Br1188   1.927       .  S
C1182      C1183   1.414       .  A
C1183      C1184   1.412       .  A
C1183     Br1190   1.924       .  S
C1184      C1185   1.410       .  A
C1184     Br1189   1.930       .  S
C1185      C1186   1.415       .  A
C1186     Br1187   1.930       .  S
C1191      C1192   1.423       .  A
C1191      C1196   1.414       .  A
C1191     Br1198   1.930       .  S
C1192      C1193   1.413       .  A
C1193      C1194   1.413       .  A
C1193     Br1200   1.927       .  S
C1194      C1195   1.414       .  A
C1194     Br1199   1.929       .  S
C1195      C1196   1.406       .  A
C1196     Br1197   1.930       .  S
C1201      C1202   1.403       .  A
C1201      C1206   1.384       .  A
C1201     Br1208   1.932       .  S
C1202      C1203   1.399   1_455  A
C1203      C1204   1.383       .  A
C1203     Br1210   1.935       .  S
C1204      C1205   1.407   1_655  A
C1204     Br1209   1.935       .  S
C1205      C1206   1.400       .  A
C1206     Br1207   1.930       .  S
C1211      C1212   1.399   1_455  A
C1211      C1216   1.386       .  A
C1211     Br1218   1.934       .  S
C1212      C1213   1.406       .  A
C1213      C1214   1.391       .  A
C1213     Br1220   1.927       .  S
C1214      C1215   1.402       .  A
C1214     Br1219   1.932       .  S
C1215      C1216   1.410   1_655  A
C1216     Br1217   1.932       .  S
C1221      C1222   1.408   1_455  A
C1221      C1226   1.386       .  A
C1221     Br1228   1.936       .  S
C1222      C1223   1.398       .  A
C1223      C1224   1.389       .  A
C1223     Br1230   1.931       .  S
C1224      C1225   1.406       .  A
C1224     Br1229   1.927       .  S
C1225      C1226   1.403   1_655  A
C1226     Br1227   1.937       .  S
C1231      C1232   1.416   1_455  A
C1231      C1236   1.419       .  A
C1231     Br1238   1.929       .  S
C1232      C1233   1.413       .  A
C1233      C1234   1.422       .  A
C1233     Br1240   1.928       .  S
C1234      C1235   1.417       .  A
C1234     Br1239   1.923       .  S
C1235      C1236   1.414   1_655  A
C1236     Br1237   1.927       .  S
C1241      C1242   1.418       .  A
C1241      C1246   1.422       .  A
C1241     Br1248   1.926       .  S
C1242      C1243   1.411   1_655  A
C1243      C1244   1.418       .  A
C1243     Br1250   1.929       .  S
C1244      C1245   1.416   1_455  A
C1244     Br1249   1.921       .  S
C1245      C1246   1.413       .  A
C1246     Br1247   1.924       .  S
C1251      C1252   1.408   1_655  A
C1251      C1256   1.382       .  A
C1251     Br1258   1.928       .  S
C1252      C1253   1.400       .  A
C1253      C1254   1.392       .  A
C1253     Br1260   1.928       .  S
C1254      C1255   1.404       .  A
C1254     Br1259   1.931       .  S
C1255      C1256   1.394   1_455  A
C1256     Br1257   1.935       .  S
