geometry optimzed in LAMMPS
_audit_creation_date              2020-11-30 
_audit_creation_method            'lammps2cif' 
_symmetry_space_group_name_H-M    'P1' 
_symmetry_Int_Tables_number       1 
_symmetry_cell_setting            triclinic 
loop_ 
_symmetry_equiv_pos_as_xyz 
  x,y,z 
_cell_length_a                    38.5411037 
_cell_length_b                    38.609486657795074 
_cell_length_c                    38.51530464731778 
_cell_angle_alpha                 89.88506408921513 
_cell_angle_beta                  89.68501721194833 
_cell_angle_gamma                 89.64612209783893 
loop_ 
_atom_site_label 
_atom_site_type_symbol 
_atom_site_fract_x 
_atom_site_fract_y 
_atom_site_fract_z 
_atom_site_charge 
O1          O  0.46001826  0.14688243  0.13031878    -0.85000
O2          O  0.44140321  0.08468278  0.15496786    -0.82000
C3          C  0.43796143  0.05882052  0.17427744     0.98500
O4          O  0.43829039  0.06244534  0.20704266    -0.82000
O5          O  0.50506803  0.08357966  0.22169630    -0.84700
C6          C  0.53119254  0.10223439  0.22672330     1.03000
O7          O  0.52894713  0.13487468  0.22371454    -0.77500
O8          O  0.51042441  0.14509522  0.15628386    -0.77600
C9          C  0.49274518  0.14284889  0.12907885     1.03000
O10         O  0.41207777  0.17733304  0.18096921    -0.85000
O11         O  0.38910319  0.11502981  0.20113112    -0.82000
C12         C  0.38725661  0.11827211  0.23391410     0.98500
O13         O  0.41432539  0.11788998  0.25185341    -0.82100
O14         O  0.47943957  0.13416589  0.27118652    -0.84700
C15         C  0.48040457  0.16709338  0.27185002     1.03000
O16         O  0.47751433  0.18445928  0.24424145    -0.77500
O17         O  0.46313322  0.20089094  0.17554319    -0.77600
C18         C  0.43027842  0.20355712  0.17574421     1.02900
Cr19       Cr  0.42791008  0.13110492  0.16914545     1.93700
Cr20       Cr  0.45933391  0.10152170  0.23542564     1.93200
Cr21       Cr  0.49258522  0.16420028  0.19984737     1.39100
O22         O  0.45983961  0.13231910  0.20159006    -1.22700
O23         O  0.14321510  0.13257532  0.45148601    -0.85000
O24         O  0.08033237  0.15297335  0.42942399    -0.82000
C25         C  0.05324587  0.17066700  0.42602551     0.98500
O26         O  0.05474110  0.20339122  0.42727676    -0.82000
O27         O  0.07354200  0.21655937  0.49518457    -0.84700
C28         C  0.09114528  0.22309210  0.52170927     1.03000
O29         O  0.12397048  0.22484811  0.51978525    -0.77500
O30         O  0.14163511  0.15932781  0.50175782    -0.77600
C31         C  0.14040348  0.13182619  0.48443955     1.03000
O32         O  0.17302632  0.18424631  0.40408732    -0.85000
O33         O  0.11072132  0.20248045  0.37953873    -0.82000
C34         C  0.11104659  0.23548667  0.37880509     0.98500
O35         O  0.10657848  0.25264505  0.40615385    -0.82100
O36         O  0.11906581  0.27162347  0.47225958    -0.84700
C37         C  0.15169872  0.27592806  0.47302825     1.03000
O38         O  0.17204678  0.25047353  0.46899213    -0.77500
O39         O  0.19579927  0.18295380  0.45573457    -0.77600
C40         C  0.19909757  0.18105304  0.42303411     1.02900
Cr41       Cr  0.12668743  0.17041359  0.41846695     1.93700
Cr42       Cr  0.09076451  0.23363283  0.45027713     1.93200
Cr43       Cr  0.15629596  0.20421511  0.48390560     1.39100
O44         O  0.12471222  0.20274007  0.45065637    -1.22700
O45         O  0.19771682  0.37877337  0.11021809    -0.85000
O46         O  0.17928182  0.40729305  0.17063095    -0.82000
C47         C  0.17751978  0.42734170  0.19602767     0.98500
O48         O  0.18007650  0.45975944  0.19126390    -0.82000
O49         O  0.24819291  0.46851524  0.16805583    -0.84700
C50         C  0.27444180  0.47016242  0.14843023     1.03000
O51         O  0.27093661  0.46856161  0.11568783    -0.77500
O52         O  0.24889198  0.40327729  0.10610954    -0.77600
C53         C  0.23071260  0.37683964  0.11093299     1.03000
O54         O  0.15121098  0.42885087  0.07604276    -0.85000
O55         O  0.13012598  0.45550775  0.13718535    -0.82000
C56         C  0.13107648  0.48813360  0.13228474     0.98500
O57         O  0.15927512  0.50414167  0.13402399    -0.82100
O58         O  0.22561069  0.51816721  0.11673955    -0.84700
C59         C  0.22456138  0.51838121  0.08375504     1.03000
O60         O  0.21802587  0.49116704  0.06731509    -0.77500
O61         O  0.20218836  0.42315077  0.05188947    -0.77600
C62         C  0.16942339  0.42263655  0.04974561     1.02900
Cr63       Cr  0.16698033  0.41988944  0.12336113     1.93700
Cr64       Cr  0.20302757  0.48496786  0.15059718     1.93200
Cr65       Cr  0.23249355  0.44685732  0.08749353     1.39100
O66         O  0.20072134  0.45041764  0.12053261    -1.22700
O67         O  0.94600001  0.36334976  0.86161899    -0.85000
O68         O  0.92708500  0.42627484  0.83924970    -0.82000
C69         C  0.92839357  0.45356299  0.82168065     0.98500
O70         O  0.93209713  0.45222350  0.78903392    -0.82000
O71         O  0.99843819  0.42698098  0.77739833    -0.84700
C72         C  0.02375397  0.40670109  0.77305976     1.03000
O73         O  0.01878885  0.37438688  0.77086150    -0.77500
O74         O  0.99737640  0.36104767  0.83648050    -0.77600
C75         C  0.97903849  0.36397868  0.86341865     1.03000
O76         O  0.89899584  0.33431689  0.80882920    -0.85000
O77         O  0.87847448  0.39762707  0.78850746    -0.82000
C78         C  0.87959044  0.39976500  0.75551993     0.98500
O79         O  0.90782290  0.40281405  0.73946488    -0.82100
O80         O  0.97326059  0.38182703  0.72304192    -0.84700
C81         C  0.97060919  0.34910699  0.72027373     1.03000
O82         O  0.96364018  0.33070713  0.74631689    -0.77500
O83         O  0.94953667  0.30964469  0.81378378    -0.77600
C84         C  0.91684311  0.30758006  0.81368244     1.02900
Cr85       Cr  0.91504983  0.38041665  0.82224779     1.93700
Cr86       Cr  0.95262932  0.41359003  0.75973992     1.93200
Cr87       Cr  0.97985664  0.34630649  0.79171011     1.39100
O88         O  0.94889463  0.38028900  0.79133901    -1.22700
O89         O  0.79573214  0.87414217  0.38813440    -0.85000
O90         O  0.81347811  0.90475993  0.32770153    -0.82000
C91         C  0.81730981  0.92634126  0.30369115     0.98500
O92         O  0.81779300  0.95841172  0.31061607    -0.82000
O93         O  0.74977439  0.96695171  0.33132093    -0.84700
C94         C  0.72263148  0.96767308  0.34950078     1.03000
O95         O  0.72418824  0.96583505  0.38244090    -0.77500
O96         O  0.74469290  0.89935722  0.39111253    -0.77600
C97         C  0.76283064  0.87262309  0.38650767     1.03000
O98         O  0.84232134  0.92226103  0.42264339    -0.85000
O99         O  0.86434409  0.94935788  0.36222434    -0.82000
C100        C  0.86516365  0.98175837  0.36843232     0.98500
O101        O  0.83745056  0.99912360  0.37001021    -0.82100
O102        O  0.76951436  0.01479690  0.38529016    -0.84700
C103        C  0.76928089  0.01357116  0.41828294     1.03000
O104        O  0.77554869  0.98557833  0.43367857    -0.77500
O105        O  0.79128811  0.91719476  0.44704772    -0.77600
C106        C  0.82413913  0.91669605  0.44910693     1.02900
Cr107      Cr  0.82672398  0.91478379  0.37542787     1.93700
Cr108      Cr  0.79367320  0.98235226  0.35122206     1.93200
Cr109      Cr  0.76134702  0.94227585  0.41150214     1.39100
O110        O  0.79405205  0.94639824  0.37955619    -1.22700
O111        O  0.05261576  0.88801115  0.62984116    -0.85000
O112        O  0.10062236  0.92260801  0.67036282    -0.82000
C113        C  0.07967684  0.94683197  0.67675640     0.98500
O114        O  0.05606389  0.94210529  0.69896258    -0.82000
O115        O  0.00577277  0.90786771  0.73587664    -0.84700
C116        C  0.98078460  0.89831664  0.71710145     1.03000
O117        O  0.98446063  0.87440554  0.69504844    -0.77500
O118        O  0.01962644  0.84313226  0.64208948    -0.77600
C119        C  0.02675064  0.86919243  0.62318368     1.03000
O120        O  0.08371746  0.82457378  0.64892415    -0.85000
O121        O  0.12368708  0.85874896  0.69782041    -0.82000
C122        C  0.12956101  0.87595518  0.72507334     0.98500
O123        O  0.10902024  0.90001046  0.73474798    -0.82100
O124        O  0.05708561  0.86508172  0.76811382    -0.84700
C125        C  0.03519221  0.84104539  0.77084839     1.03000
O126        O  0.01770272  0.83141597  0.74499117    -0.77500
O127        O  0.05833078  0.80146581  0.69363537    -0.77600
C128        C  0.08008216  0.79935920  0.66913423     1.02900
Cr129      Cr  0.08782064  0.87335822  0.66412840     1.93700
Cr130      Cr  0.05698562  0.90165125  0.73168461     1.93200
Cr131      Cr  0.02270314  0.83972419  0.69408935     1.39100
O132        O  0.05546265  0.87161740  0.69705106    -1.22700
O133        O  0.37231510  0.87290859  0.95170492    -0.85000
O134        O  0.43209918  0.84029553  0.93476953    -0.82000
C135        C  0.45556142  0.81793480  0.93141135     0.98500
O136        O  0.44797750  0.78600644  0.93224139    -0.82000
O137        O  0.42624106  0.77738875  0.00083729    -0.84700
C138        C  0.40723928  0.77781458  0.02760609     1.03000
O139        O  0.37469069  0.78267142  0.02502755    -0.77500
O140        O  0.36841691  0.84883297  0.00316621    -0.77600
C141        C  0.37365201  0.87504341  0.98460721     1.03000
O142        O  0.33671043  0.82499857  0.90556656    -0.85000
O143        O  0.39694724  0.79577685  0.88435687    -0.82000
C144        C  0.38969060  0.76364562  0.88408552     0.98500
O145        O  0.38741888  0.74704893  0.91210969    -0.82100
O146        O  0.37100171  0.73268955  0.97949543    -0.84700
C147        C  0.33812966  0.73522669  0.97977579     1.03000
O148        O  0.32361285  0.76370232  0.97352695    -0.77500
O149        O  0.31248876  0.83199562  0.95650312    -0.77600
C150        C  0.31039090  0.83175928  0.92365043     1.02900
Cr151      Cr  0.38418399  0.83132662  0.92146947     1.93700
Cr152      Cr  0.40636719  0.76351742  0.95599834     1.93200
Cr153      Cr  0.34699654  0.80640643  0.98711979     1.39100
O154        O  0.37919160  0.80054965  0.95487921    -1.22700
O155        O  0.30096123  0.61702066  0.64721562    -0.85000
O156        O  0.35105652  0.57494822  0.67684595    -0.82000
C157        C  0.33148511  0.56861700  0.70225888     0.98500
O158        O  0.30790604  0.54646061  0.69890308    -0.82000
O159        O  0.25486732  0.51139216  0.66831256    -0.84700
C160        C  0.22956555  0.53146967  0.66221340     1.03000
O161        O  0.23138727  0.55436260  0.63892208    -0.77500
O162        O  0.26423518  0.60656595  0.60512340    -0.77600
C163        C  0.27277704  0.62360008  0.63186213     1.03000
O164        O  0.32662263  0.59824805  0.58011724    -0.85000
O165        O  0.36869625  0.54849746  0.61027299    -0.82000
C166        C  0.37519213  0.52033421  0.62582718     0.98500
O167        O  0.35700475  0.51078936  0.65172606    -0.82100
O168        O  0.30219449  0.47984820  0.62032793    -0.84700
C169        C  0.27824317  0.47836785  0.59819751     1.03000
O170        O  0.25939140  0.50449375  0.59180144    -0.77500
O171        O  0.29729671  0.55534996  0.55906225    -0.77600
C172        C  0.31999424  0.57840535  0.55516064     1.02900
Cr173      Cr  0.33452496  0.58248768  0.62859177     1.93700
Cr174      Cr  0.30539180  0.51484809  0.65787799     1.93200
Cr175      Cr  0.26586193  0.55493674  0.60057996     1.39100
O176        O  0.30168185  0.55031930  0.62896306    -1.22700
O177        O  0.54733319  0.60192676  0.36905020    -0.85000
O178        O  0.59618150  0.56753994  0.32877861    -0.82000
C179        C  0.57529282  0.54334713  0.32316294     0.98500
O180        O  0.55361113  0.54648254  0.29897217    -0.82000
O181        O  0.50349995  0.57894282  0.26028588    -0.84700
C182        C  0.47777841  0.58596679  0.27962520     1.03000
O183        O  0.47981017  0.60890335  0.30283948    -0.77500
O184        O  0.51156622  0.64428867  0.35513843    -0.77600
C185        C  0.52031028  0.61966928  0.37519069     1.03000
O186        O  0.57599622  0.66591873  0.34718207    -0.85000
O187        O  0.61797280  0.63174857  0.29998414    -0.82000
C188        C  0.62514969  0.61482339  0.27278836     0.98500
O189        O  0.60637176  0.58952953  0.26364250    -0.82100
O190        O  0.55425377  0.62378150  0.22994694    -0.84700
C191        C  0.53096546  0.64675767  0.22725080     1.03000
O192        O  0.51069439  0.65332104  0.25230345    -0.77500
O193        O  0.54769821  0.68646912  0.30298526    -0.77600
C194        C  0.57016376  0.69032463  0.32631691     1.02900
Cr195      Cr  0.58213922  0.61669639  0.33387184     1.93700
Cr196      Cr  0.55430693  0.58665536  0.26591960     1.93200
Cr197      Cr  0.51517469  0.64618711  0.30323166     1.39100
O198        O  0.55026364  0.61647651  0.30073586    -1.22700
O199        O  0.62991917  0.28813038  0.62020097    -0.85000
O200        O  0.66250212  0.34541614  0.59157032    -0.82000
C201        C  0.68982437  0.32915621  0.58366806     0.98500
O202        O  0.69028275  0.31011317  0.55705533    -0.82000
O203        O  0.66511311  0.26509212  0.50781692    -0.84700
C204        C  0.65862947  0.23585326  0.52089409     1.03000
O205        O  0.63446436  0.23193338  0.54290701    -0.77500
O206        O  0.59191785  0.25273303  0.59706036    -0.77600
C207        C  0.61379975  0.25961048  0.62048115     1.03000
O208        O  0.56519135  0.31519625  0.59726750    -0.85000
O209        O  0.59863943  0.36666270  0.56035082    -0.82000
C210        C  0.61717653  0.37838363  0.53587998     0.98500
O211        O  0.64571046  0.36379736  0.52826980    -0.82100
O212        O  0.61839232  0.31667138  0.48275280    -0.84700
C213        C  0.59786091  0.29270723  0.47446442     1.03000
O214        O  0.59177521  0.26800248  0.49508604    -0.77500
O215        O  0.55125519  0.29386259  0.54728419    -0.77600
C216        C  0.54384548  0.31279137  0.57286647     1.02900
Cr217      Cr  0.61458061  0.32714211  0.58981647     1.93700
Cr218      Cr  0.65270066  0.31307098  0.52136557     1.93200
Cr219      Cr  0.59415841  0.26436062  0.54632878     1.39100
O220        O  0.62077496  0.30111838  0.55232033    -1.22700
O221        O  0.69870327  0.11340273  0.85223766    -0.85000
O222        O  0.65138733  0.07042985  0.82077082    -0.82000
C223        C  0.67263036  0.06683182  0.79615207     0.98500
O224        O  0.69578070  0.04377809  0.79841971    -0.82000
O225        O  0.74795182  0.00658733  0.82947462    -0.84700
C226        C  0.77315653  0.02632765  0.83585180     1.03000
O227        O  0.77065749  0.04968849  0.85860469    -0.77500
O228        O  0.73720838  0.10212164  0.89289202    -0.77600
C229        C  0.72614288  0.12108167  0.86823846     1.03000
O230        O  0.67361928  0.09248252  0.91783795    -0.85000
O231        O  0.63374869  0.04192049  0.88685574    -0.82000
C232        C  0.62786877  0.01429207  0.87037859     0.98500
O233        O  0.64543198  0.00692595  0.84336841    -0.82100
O234        O  0.69950091  0.97554238  0.87609271    -0.84700
C235        C  0.72281820  0.97384834  0.89891635     1.03000
O236        O  0.74203444  0.99949952  0.90524613    -0.77500
O237        O  0.70435770  0.05002012  0.93844232    -0.77600
C238        C  0.68116182  0.07276259  0.94267942     1.02900
Cr239      Cr  0.66655428  0.07735447  0.86931504     1.93700
Cr240      Cr  0.69722775  0.01087209  0.83870124     1.93200
Cr241      Cr  0.73582352  0.05014074  0.89685285     1.39100
O242        O  0.70029354  0.04588425  0.86827547    -1.22700
O243        O  0.85644273  0.70289859  0.12029458    -0.85000
O244        O  0.82742495  0.65230180  0.07856957    -0.82000
C245        C  0.80246802  0.67236939  0.07248345     0.98500
O246        O  0.80649899  0.69607530  0.05036811    -0.82000
O247        O  0.83929004  0.74776276  0.01442682    -0.84700
C248        C  0.84823364  0.77374609  0.03210494     1.03000
O249        O  0.87214355  0.77167198  0.05428904    -0.77500
O250        O  0.89990867  0.73850405  0.10991139    -0.77600
C251        C  0.87274585  0.73041388  0.12702319     1.03000
O252        O  0.92267349  0.67541710  0.10600463    -0.85000
O253        O  0.89411767  0.63358832  0.05436655    -0.82000
C254        C  0.87885924  0.62700652  0.02609074     0.98500
O255        O  0.85335556  0.64545494  0.01595454    -0.82100
O256        O  0.88570500  0.69912006  0.98320381    -0.84700
C257        C  0.91006353  0.72077829  0.98150375     1.03000
O258        O  0.91895643  0.73803833  0.00780836    -0.77500
O259        O  0.94685029  0.69972919  0.06150488    -0.77600
C260        C  0.94881817  0.67935874  0.08703943     1.02900
Cr261      Cr  0.87530395  0.66829929  0.08741755     1.93700
Cr262      Cr  0.84816566  0.69720237  0.01879128     1.93200
Cr263      Cr  0.90750872  0.73422508  0.05823945     1.39100
O264        O  0.87690697  0.70043726  0.05434338    -1.22700
C265        C  0.76275001  0.90501952  0.96009089     0.19100
C266        C  0.78443871  0.90644162  0.98926290    -0.19000
C267        C  0.79761689  0.87612391  0.00433595    -0.11300
C268        C  0.78944660  0.84356866  0.99031293     0.21300
C269        C  0.76678071  0.84216155  0.96193628    -0.20600
C270        C  0.75368891  0.87240159  0.94685720    -0.11500
C271        C  0.80484833  0.81043712  0.00286102    -0.15600
C272        C  0.83123267  0.80756573  0.02557635    -0.29500
C273        C  0.75258123  0.93804405  0.94284847    -0.03800
C274        C  0.72858906  0.94090466  0.91761678    -0.40300
H275        H  0.79181328  0.93121032  0.00005948     0.12500
H276        H  0.81444796  0.87859109  0.02650990     0.12100
H277        H  0.75998313  0.81747367  0.95056380     0.11500
H278        H  0.73761101  0.86982195  0.92415453     0.11800
H279        H  0.79517035  0.78695284  0.99088238     0.14500
H280        H  0.84193657  0.83012520  0.03819162     0.13300
H281        H  0.76639005  0.96115158  0.95080732     0.11000
H282        H  0.71318648  0.91888072  0.90987099     0.13000
C283        C  0.65034325  0.20638370  0.69702341     0.19100
C284        C  0.65886874  0.21355679  0.73157242    -0.19000
C285        C  0.66309305  0.18657358  0.75553321    -0.11300
C286        C  0.65987662  0.15183385  0.74517961     0.21300
C287        C  0.65281614  0.14454387  0.71025392    -0.20600
C288        C  0.64803020  0.17155055  0.68641653    -0.11500
C289        C  0.66117649  0.12428838  0.77207130    -0.15600
C290        C  0.67131942  0.09119672  0.76651308    -0.29500
C291        C  0.64386515  0.23543038  0.67241971    -0.03800
C292        C  0.61967694  0.23312896  0.64755143    -0.40300
H293        H  0.66115961  0.24014152  0.74029526     0.12500
H294        H  0.66852328  0.19283414  0.78232848     0.12100
H295        H  0.64978354  0.11808465  0.70153188     0.11500
H296        H  0.64243314  0.16513237  0.65972649     0.11800
H297        H  0.65454991  0.13217773  0.79837730     0.14500
H298        H  0.68124742  0.08309108  0.74137608     0.13300
H299        H  0.65850413  0.25922106  0.67535804     0.11000
H300        H  0.60394149  0.20992584  0.64600794     0.13000
C301        C  0.60255072  0.43619601  0.45581522     0.19100
C302        C  0.60109009  0.42756627  0.42042696    -0.19000
C303        C  0.59406348  0.45283111  0.39531718    -0.11300
C304        C  0.58882787  0.48747053  0.40517145     0.21300
C305        C  0.58952664  0.49595043  0.44067980    -0.20600
C306        C  0.59608618  0.47056418  0.46584372    -0.11500
C307        C  0.58615892  0.51596260  0.37933444    -0.15600
C308        C  0.57601771  0.51249883  0.34599412    -0.29500
C309        C  0.61415866  0.40933452  0.48079151    -0.03800
C310        C  0.60535169  0.40810165  0.51471474    -0.40300
H311        H  0.60623865  0.40120723  0.41207843     0.12500
H312        H  0.59439936  0.44542906  0.36826269     0.12100
H313        H  0.58587811  0.52257362  0.44893005     0.11500
H314        H  0.59769503  0.47816451  0.49280599     0.11800
H315        H  0.59261831  0.54171549  0.38864673     0.14500
H316        H  0.56644082  0.48799375  0.33629636     0.13300
H317        H  0.62979288  0.38832575  0.47004358     0.11000
H318        H  0.58720420  0.42675500  0.52575017     0.13000
C319        C  0.74044841  0.64809882  0.14761331     0.19100
C320        C  0.74598774  0.64709376  0.18361446    -0.19000
C321        C  0.71926572  0.63812977  0.20657239    -0.11300
C322        C  0.68624787  0.62954020  0.19395785     0.21300
C323        C  0.68064656  0.63075170  0.15788023    -0.20600
C324        C  0.70736460  0.64016127  0.13489331    -0.11500
C325        C  0.65764338  0.61769700  0.21732205    -0.15600
C326        C  0.65563283  0.62487114  0.25157334    -0.29500
C327        C  0.77077504  0.65395451  0.12441319    -0.03800
C328        C  0.76968138  0.66807309  0.09230493    -0.40300
H329        H  0.77143208  0.65271360  0.19404799     0.12500
H330        H  0.72503193  0.63680575  0.23397120     0.12100
H331        H  0.65553651  0.62396376  0.14738063     0.11500
H332        H  0.70249094  0.63988322  0.10725394     0.11800
H333        H  0.63633421  0.60379307  0.20536783     0.14500
H334        H  0.67496766  0.64113742  0.26371721     0.13300
H335        H  0.79597220  0.64714325  0.13515762     0.11000
H336        H  0.74552155  0.67799790  0.08173853     0.13000
C337        C  0.43109049  0.43944959  0.60628299     0.19100
C338        C  0.42312142  0.40431109  0.60129219    -0.19000
C339        C  0.44928195  0.38006823  0.59377692    -0.11300
C340        C  0.48402199  0.39060414  0.59158853     0.21300
C341        C  0.49186288  0.42581745  0.59572539    -0.20600
C342        C  0.46574895  0.45005920  0.60282895    -0.11500
C343        C  0.51319001  0.36557791  0.58899924    -0.15600
C344        C  0.51191822  0.33412466  0.57390003    -0.29500
C345        C  0.40321149  0.46362027  0.61786922    -0.03800
C346        C  0.40426062  0.49829070  0.61383263    -0.40300
H347        H  0.39659822  0.39543547  0.60406048     0.12500
H348        H  0.44249719  0.35304558  0.59138965     0.12100
H349        H  0.51856087  0.43450208  0.59442158     0.11500
H350        H  0.47308405  0.47665499  0.60718954     0.11800
H351        H  0.53782975  0.37424950  0.59946935     0.14500
H352        H  0.48888467  0.32561617  0.56031376     0.13300
H353        H  0.38021578  0.45216183  0.62962054     0.11000
H354        H  0.42524616  0.51038150  0.59940738     0.13000
C355        C  0.39437770  0.60143625  0.49199551     0.19100
C356        C  0.38241557  0.60210399  0.45760906    -0.19000
C357        C  0.40565024  0.60795138  0.43013079    -0.11300
C358        C  0.44122292  0.61259155  0.43641868     0.21300
C359        C  0.45315449  0.61158652  0.47078060    -0.20600
C360        C  0.42990517  0.60629363  0.49821976    -0.11500
C361        C  0.46477342  0.62050250  0.40685671    -0.15600
C362        C  0.49877081  0.61201699  0.40607306    -0.29500
C363        C  0.37073870  0.59811338  0.52235153    -0.03800
C364        C  0.33971206  0.58206335  0.52226990    -0.40300
H365        H  0.35511436  0.59924220  0.45195318     0.12500
H366        H  0.39579748  0.60904431  0.40386524     0.12100
H367        H  0.48019083  0.61598388  0.47663968     0.11500
H368        H  0.43969977  0.60630254  0.52452822     0.11800
H369        H  0.45321196  0.63246955  0.38407104     0.14500
H370        H  0.51030232  0.59734663  0.42718210     0.13300
H371        H  0.38048245  0.60803181  0.54680627     0.11000
H372        H  0.33023755  0.56950026  0.49903789     0.13000
C373        C  0.46939265  0.74460138  0.09868072     0.19100
C374        C  0.49803679  0.72194717  0.09713671    -0.19000
C375        C  0.51010112  0.70517150  0.12704529    -0.11300
C376        C  0.49380262  0.71098617  0.15931560     0.21300
C377        C  0.46639824  0.73512384  0.16106377    -0.20600
C378        C  0.45434398  0.75181198  0.13121790    -0.11500
C379        C  0.50325226  0.69207750  0.19169450    -0.15600
C380        C  0.52633688  0.66571026  0.19410560    -0.29500
C381        C  0.45532163  0.75901757  0.06571994    -0.03800
C382        C  0.42220616  0.76987045  0.06197919    -0.40300
H383        H  0.51047403  0.71634122  0.07248004     0.12500
H384        H  0.53171626  0.68742278  0.12441901     0.12100
H385        H  0.45368088  0.74062984  0.18561845     0.11500
H386        H  0.43314276  0.77008007  0.13385419     0.11800
H387        H  0.48905920  0.69962202  0.21497545     0.14500
H388        H  0.54136997  0.65720855  0.17183201     0.13300
H389        H  0.47192233  0.75752209  0.04284631     0.11000
H390        H  0.40449778  0.76993027  0.08396225     0.13000
C391        C  0.57687483  0.93067729  0.89069245     0.19100
C392        C  0.56712014  0.90099655  0.87210637    -0.19000
C393        C  0.54384361  0.87706977  0.88656008    -0.11300
C394        C  0.53023695  0.88229277  0.92011460     0.21300
C395        C  0.54155913  0.91088419  0.93932647    -0.20600
C396        C  0.56478018  0.93464720  0.92497728    -0.11500
C397        C  0.50025442  0.86238612  0.93374871    -0.15600
C398        C  0.49116572  0.83018046  0.92390879    -0.29500
C399        C  0.60021358  0.95659519  0.87407084    -0.03800
C400        C  0.60112221  0.99023973  0.88356306    -0.40300
H401        H  0.57650917  0.89700683  0.84585360     0.12500
H402        H  0.53518679  0.85565764  0.87077997     0.12100
H403        H  0.53155300  0.91543753  0.96526493     0.11500
H404        H  0.57292225  0.95621065  0.94080180     0.11800
H405        H  0.48314393  0.87630086  0.95151284     0.14500
H406        H  0.50844181  0.81428751  0.90820424     0.13300
H407        H  0.61738233  0.94756419  0.85347792     0.11000
H408        H  0.58368393  0.99989210  0.90356729     0.13000
C409        C  0.36550280  0.68972177  0.82086576     0.19100
C410        C  0.34332612  0.66111261  0.82428723    -0.19000
C411        C  0.33975530  0.63710999  0.79737233    -0.11300
C412        C  0.35857789  0.64105197  0.76623381     0.21300
C413        C  0.38066023  0.66980016  0.76279811    -0.20600
C414        C  0.38414632  0.69386215  0.78971839    -0.11500
C415        C  0.35573376  0.61669102  0.73631268    -0.15600
C416        C  0.33554839  0.58815801  0.73508624    -0.29500
C417        C  0.37012180  0.71277167  0.85142655    -0.03800
C418        C  0.38460597  0.74462688  0.85105701    -0.40300
H419        H  0.32877156  0.65714433  0.84810536     0.12500
H420        H  0.32232163  0.61568709  0.80137466     0.12100
H421        H  0.39553344  0.67359603  0.73916949     0.11500
H422        H  0.40205368  0.71505392  0.78626560     0.11800
H423        H  0.37044432  0.62357308  0.71316299     0.14500
H424        H  0.31991202  0.58032794  0.75715699     0.13300
H425        H  0.36082443  0.70256549  0.87609282     0.11000
H426        H  0.39237747  0.75683202  0.82687495     0.13000
C427        C  0.96592083  0.76318711  0.90896442     0.19100
C428        C  0.98325944  0.79507079  0.90694028    -0.19000
C429        C  0.99651693  0.80726219  0.87532375    -0.11300
C430        C  0.99298615  0.78764128  0.84483926     0.21300
C431        C  0.97606341  0.75557940  0.84686536    -0.20600
C432        C  0.96292772  0.74328598  0.87853044    -0.11500
C433        C  0.00409621  0.80088226  0.81019176    -0.15600
C434        C  0.02860614  0.82527610  0.80534263    -0.29500
C435        C  0.95093046  0.75242628  0.94314586    -0.03800
C436        C  0.92739023  0.72698795  0.94759803    -0.40300
H437        H  0.98587684  0.81107636  0.92983153     0.12500
H438        H  0.00843502  0.83255150  0.87476932     0.12100
H439        H  0.97284387  0.74000044  0.82375341     0.11500
H440        H  0.95049466  0.71829094  0.87878362     0.11800
H441        H  0.99096018  0.79036810  0.78768725     0.14500
H442        H  0.04312160  0.83511135  0.82721664     0.13300
H443        H  0.95815995  0.76774861  0.96557859     0.11000
H444        H  0.91856910  0.71188669  0.92573298     0.13000
C445        C  0.90709806  0.95683316  0.75260732     0.19100
C446        C  0.90569064  0.99001203  0.76750062    -0.19000
C447        C  0.87428658  0.00382790  0.77973308    -0.11300
C448        C  0.84358379  0.98446143  0.77765790     0.21300
C449        C  0.84484132  0.95180056  0.76170866    -0.20600
C450        C  0.87617924  0.93797984  0.74952540    -0.11500
C451        C  0.80997470  0.99625505  0.79280248    -0.15600
C452        C  0.80659528  0.02068120  0.81761664    -0.29500
C453        C  0.94153784  0.94178883  0.74339482    -0.03800
C454        C  0.94624763  0.91450977  0.72199493    -0.40300
H455        H  0.92913510  0.00511892  0.77014598     0.12500
H456        H  0.87436430  0.02952510  0.79100496     0.12100
H457        H  0.82155814  0.93625863  0.75976477     0.11500
H458        H  0.87612341  0.91201968  0.73904240     0.11800
H459        H  0.78706920  0.98191046  0.78513521     0.14500
H460        H  0.82889154  0.03509002  0.82656279     0.13300
H461        H  0.96402661  0.95349680  0.75529461     0.11000
H462        H  0.92462617  0.90340239  0.70825562     0.13000
C463        C  0.13514018  0.71701117  0.67824024     0.19100
C464        C  0.12852906  0.68145976  0.67624172    -0.19000
C465        C  0.15483638  0.65851764  0.66569773    -0.11300
C466        C  0.18833480  0.67066895  0.65785699     0.21300
C467        C  0.19530686  0.70611021  0.66160875    -0.20600
C468        C  0.16895192  0.72901559  0.67166133    -0.11500
C469        C  0.21446226  0.64619536  0.64337502    -0.15600
C470        C  0.24907928  0.65045021  0.64557182    -0.29500
C471        C  0.10648221  0.74204974  0.68461622    -0.03800
C472        C  0.10304117  0.76933166  0.66331011    -0.40300
H473        H  0.10268347  0.67169391  0.68123439     0.12500
H474        H  0.14885490  0.63127731  0.66299896     0.12100
H475        H  0.22059411  0.71649437  0.65534707     0.11500
H476        H  0.17473128  0.75637299  0.67344059     0.11800
H477        H  0.20463342  0.62277898  0.63134580     0.14500
H478        H  0.25987701  0.67170918  0.66032249     0.13300
H479        H  0.08870397  0.73819251  0.70622735     0.11000
H480        H  0.12043007  0.77126317  0.64104449     0.13000
C481        C  0.24667360  0.85004094  0.84822121     0.19100
C482        C  0.25153286  0.84841503  0.81205743    -0.19000
C483        C  0.22501079  0.85774436  0.78931950    -0.11300
C484        C  0.19265798  0.86878441  0.80223320     0.21300
C485        C  0.18779617  0.87086466  0.83838815    -0.20600
C486        C  0.21443998  0.86148349  0.86125206    -0.11500
C487        C  0.16366248  0.87884712  0.77892110    -0.15600
C488        C  0.16065306  0.86788991  0.74584365    -0.29500
C489        C  0.27650840  0.84010371  0.87052660    -0.03800
C490        C  0.27755843  0.84054563  0.90562303    -0.40300
H491        H  0.27620059  0.84007815  0.80119378     0.12500
H492        H  0.23028109  0.85678340  0.76174954     0.12100
H493        H  0.16315020  0.87954801  0.84900775     0.11500
H494        H  0.20957049  0.86334357  0.88882272     0.11800
H495        H  0.14278761  0.89431099  0.79020430     0.14500
H496        H  0.17977171  0.85039599  0.73459526     0.13300
H497        H  0.29985070  0.83225580  0.85653084     0.11000
H498        H  0.25508225  0.84790863  0.92105141     0.13000
C499        C  0.64324258  0.75307161  0.35226145     0.19100
C500        C  0.67759205  0.74712995  0.36303149    -0.19000
C501        C  0.70010129  0.77474990  0.36915406    -0.11300
C502        C  0.68853930  0.80906292  0.36483856     0.21300
C503        C  0.65418001  0.81492562  0.35398974    -0.20600
C504        C  0.63176292  0.78733050  0.34772435    -0.11500
C505        C  0.71033244  0.83972651  0.37268097    -0.15600
C506        C  0.74481422  0.83957590  0.37926899    -0.29500
C507        C  0.61993411  0.72287893  0.34809491    -0.03800
C508        C  0.59029894  0.72267559  0.32946146    -0.40300
H509        H  0.68700122  0.72092913  0.36701111     0.12500
H510        H  0.72609703  0.76898925  0.37792720     0.12100
H511        H  0.64441741  0.84110181  0.35075120     0.11500
H512        H  0.60530092  0.79303290  0.34031795     0.11800
H513        H  0.69672360  0.86448432  0.37258556     0.14500
H514        H  0.75996177  0.81583793  0.37836851     0.13300
H515        H  0.62848949  0.69890611  0.36031175     0.11000
H516        H  0.58200973  0.74531866  0.31490963     0.13000
C517        C  0.85213688  0.81228185  0.18094579     0.19100
C518        C  0.86907735  0.84380876  0.18712942    -0.19000
C519        C  0.85591860  0.86743773  0.21152337    -0.11300
C520        C  0.82526831  0.86001429  0.22996452     0.21300
C521        C  0.80746496  0.82934453  0.22247485    -0.20600
C522        C  0.82052185  0.80584947  0.19813087    -0.11500
C523        C  0.81357390  0.88047911  0.26045818    -0.15600
C524        C  0.82341518  0.91303709  0.26818242    -0.29500
C525        C  0.86782067  0.78719046  0.15599376    -0.03800
C526        C  0.85957087  0.75331130  0.15479403    -0.40300
H527        H  0.89317915  0.84967690  0.17385430     0.12500
H528        H  0.87065010  0.89053515  0.21696302     0.12100
H529        H  0.78373422  0.82305616  0.23623632     0.11500
H530        H  0.80572154  0.78271972  0.19313456     0.11800
H531        H  0.79729887  0.86677304  0.27905045     0.14500
H532        H  0.83764334  0.92876786  0.24965325     0.13300
H533        H  0.88688253  0.79714548  0.13767107     0.11000
H534        H  0.84091035  0.74242742  0.17286754     0.13000
C535        C  0.90035659  0.89790117  0.51126510     0.19100
C536        C  0.93630713  0.89844944  0.50497144    -0.19000
C537        C  0.95972780  0.88783721  0.53032090    -0.11300
C538        C  0.94776482  0.87664139  0.56290274     0.21300
C539        C  0.91180748  0.87549120  0.56917723    -0.20600
C540        C  0.88821944  0.88616285  0.54366643    -0.11500
C541        C  0.97206627  0.86574040  0.59066879    -0.15600
C542        C  0.00473711  0.87772382  0.59317705    -0.29500
C543        C  0.87737041  0.90916457  0.48254569    -0.03800
C544        C  0.84229451  0.90813546  0.48189564    -0.40300
H545        H  0.94645027  0.90690472  0.48009255     0.12500
H546        H  0.98712161  0.88799126  0.52402740     0.12100
H547        H  0.90197576  0.86670121  0.59404256     0.11500
H548        H  0.86077435  0.88519097  0.54954581     0.11800
H549        H  0.96192449  0.84912041  0.61110653     0.14500
H550        H  0.01453014  0.89657383  0.57468848     0.13300
H551        H  0.89091175  0.91805030  0.45940204     0.11000
H552        H  0.82725154  0.89989819  0.50423391     0.13000
C553        C  0.72095098  0.09501415  0.44954322     0.19100
C554        C  0.71111388  0.12673020  0.43479078    -0.19000
C555        C  0.69480833  0.15207606  0.45495686    -0.11300
C556        C  0.68765784  0.14609730  0.49034182     0.21300
C557        C  0.69609696  0.11388489  0.50485356    -0.20600
C558        C  0.71279496  0.08856765  0.48472742    -0.11500
C559        C  0.67058975  0.17318611  0.51177425    -0.15600
C560        C  0.67906755  0.20653060  0.50742400    -0.29500
C561        C  0.73774841  0.06857620  0.42699499    -0.03800
C562        C  0.75826758  0.04333322  0.43951493    -0.40300
H563        H  0.71622951  0.13198137  0.40761516     0.12500
H564        H  0.68736864  0.17625806  0.44269292     0.12100
H565        H  0.69013046  0.10848652  0.53183334     0.11500
H566        H  0.71856375  0.06382478  0.49665177     0.11800
H567        H  0.65041371  0.16585447  0.53011590     0.14500
H568        H  0.70031315  0.21299576  0.48993372     0.13300
H569        H  0.73236758  0.06947931  0.39932539     0.11000
H570        H  0.76426748  0.04235271  0.46699490     0.13000
C571        C  0.16140745  0.49393469  0.72515597     0.19100
C572        C  0.16102139  0.46289489  0.74418207    -0.19000
C573        C  0.13020017  0.45040347  0.75846343    -0.11300
C574        C  0.09895923  0.46876639  0.75392837     0.21300
C575        C  0.09967339  0.50092133  0.73688356    -0.20600
C576        C  0.13055797  0.51343630  0.72251030    -0.11500
C577        C  0.06507093  0.45463047  0.76531922    -0.15600
C578        C  0.05893697  0.42041861  0.76778279    -0.29500
C579        C  0.19433616  0.50396252  0.70781105    -0.03800
C580        C  0.19679343  0.52705711  0.68166480    -0.40300
H581        H  0.18452949  0.44768385  0.74721535     0.12500
H582        H  0.13097652  0.42623426  0.77269840     0.12100
H583        H  0.07602254  0.51587487  0.73365998     0.11500
H584        H  0.12989324  0.53807647  0.70916464     0.11800
H585        H  0.04361077  0.47279179  0.76839991     0.14500
H586        H  0.07949257  0.40172116  0.76284336     0.13300
H587        H  0.21744873  0.48954824  0.71527723     0.11000
H588        H  0.17434145  0.54162909  0.67294129     0.13000
C589        C  0.80008448  0.18727363  0.85543598     0.19100
C590        C  0.83629777  0.18517615  0.85930827    -0.19000
C591        C  0.85775855  0.21228740  0.84832181    -0.11300
C592        C  0.84332052  0.24226357  0.83323587     0.21300
C593        C  0.80711582  0.24436986  0.82957844    -0.20600
C594        C  0.78572499  0.21735961  0.84055086    -0.11500
C595        C  0.86420328  0.27291509  0.82276405    -0.15600
C596        C  0.89919354  0.27435507  0.82110761    -0.29500
C597        C  0.77835652  0.15789135  0.86781928    -0.03800
C598        C  0.74532233  0.15248867  0.85788224    -0.40300
H599        H  0.84806895  0.16244056  0.87096627     0.12500
H600        H  0.88538596  0.20975463  0.85234126     0.12100
H601        H  0.79517366  0.26731398  0.81849548     0.11500
H602        H  0.75800370  0.22067770  0.83790039     0.11800
H603        H  0.84948357  0.29621939  0.81655463     0.14500
H604        H  0.91509879  0.25170087  0.82632546     0.13300
H605        H  0.79079833  0.13878781  0.88447897     0.11000
H606        H  0.73278042  0.16976180  0.83953145     0.13000
C607        C  0.89542643  0.56818211  0.94634225     0.19100
C608        C  0.88659312  0.57084853  0.91101658    -0.19000
C609        C  0.89747736  0.54571060  0.88707181    -0.11300
C610        C  0.91757315  0.51730341  0.89806432     0.21300
C611        C  0.92687743  0.51495735  0.93319528    -0.20600
C612        C  0.91601543  0.53996777  0.95707566    -0.11500
C613        C  0.92644524  0.48761531  0.87517225    -0.15600
C614        C  0.92415286  0.48695650  0.84016725    -0.29500
C615        C  0.88206780  0.59504918  0.97083436    -0.03800
C616        C  0.89103972  0.59770106  0.00457226    -0.40300
H617        H  0.87069590  0.59223073  0.90195473     0.12500
H618        H  0.88912929  0.54809503  0.86042028     0.12100
H619        H  0.94207153  0.49314140  0.94245383     0.11500
H620        H  0.92334447  0.53636760  0.98384591     0.11800
H621        H  0.93447695  0.46408076  0.88849929     0.14500
H622        H  0.91816474  0.51012855  0.82540280     0.13300
H623        H  0.86462218  0.61446528  0.96008706     0.11000
H624        H  0.90950165  0.58000096  0.01619111     0.13000
C625        C  0.79546722  0.36855548  0.71387567     0.19100
C626        C  0.76171952  0.36004988  0.72427576    -0.19000
C627        C  0.73662111  0.35181165  0.69959883    -0.11300
C628        C  0.74493546  0.35101711  0.66401424     0.21300
C629        C  0.77899635  0.35860666  0.65353091    -0.20600
C630        C  0.80403076  0.36725588  0.67821253    -0.11500
C631        C  0.71659987  0.34474466  0.63889093    -0.15600
C632        C  0.72069705  0.33319073  0.60599966    -0.29500
C633        C  0.82175948  0.37696412  0.74067862    -0.03800
C634        C  0.84822743  0.39839693  0.73397666    -0.40300
H635        H  0.75459620  0.36035379  0.75153433     0.12500
H636        H  0.71053239  0.34615449  0.70833961     0.12100
H637        H  0.78621335  0.35868465  0.62631741     0.11500
H638        H  0.83012223  0.37247450  0.66930306     0.11800
H639        H  0.69044588  0.34942121  0.64853961     0.14500
H640        H  0.74603338  0.32573267  0.59607001     0.13300
H641        H  0.82018848  0.36403333  0.76574015     0.11000
H642        H  0.84960070  0.41140777  0.70897215     0.13000
C643        C  0.09625253  0.39878026  0.98534216     0.19100
C644        C  0.06027393  0.39457002  0.98993244    -0.19000
C645        C  0.03894687  0.38550731  0.96216509    -0.11300
C646        C  0.05318924  0.38038506  0.92891476     0.21300
C647        C  0.08921964  0.38434809  0.92434565    -0.20600
C648        C  0.11055941  0.39343605  0.95212590    -0.11500
C649        C  0.03192381  0.37178181  0.89796052    -0.15600
C650        C  0.99691741  0.36875010  0.89705612    -0.29500
C651        C  0.11719007  0.40883303  0.01609766    -0.03800
C652        C  0.15195545  0.41351456  0.01681000    -0.40300
H653        H  0.04846736  0.39844771  0.01521918     0.12500
H654        H  0.01150797  0.38276387  0.96708071     0.12100
H655        H  0.10098538  0.38064731  0.89899894     0.11500
H656        H  0.13798433  0.39633585  0.94720151     0.11800
H657        H  0.04635767  0.36891198  0.87379067     0.14500
H658        H  0.98115644  0.37159155  0.92024770     0.13300
H659        H  0.10266561  0.41232009  0.04013939     0.11000
H660        H  0.16787856  0.40988154  0.99381425     0.13000
C661        C  0.02512820  0.61510251  0.08035705     0.19100
C662        C  0.05380153  0.60940248  0.05853346    -0.19000
C663        C  0.07825598  0.58365184  0.06641061    -0.11300
C664        C  0.07413707  0.56230538  0.09575267     0.21300
C665        C  0.04481956  0.56708086  0.11702988    -0.20600
C666        C  0.02055550  0.59319192  0.10941227    -0.11500
C667        C  0.10266795  0.53792813  0.10490779    -0.15600
C668        C  0.09946692  0.50857706  0.12393963    -0.29500
C669        C  0.99961945  0.64291119  0.07137782    -0.03800
C670        C  0.98009291  0.65893612  0.09556020    -0.40300
H671        H  0.05768078  0.62540126  0.03572894     0.12500
H672        H  0.10071994  0.58057418  0.04962431     0.12100
H673        H  0.04109823  0.55141286  0.14005682     0.11500
H674        H  0.99811779  0.59588058  0.12619785     0.11800
H675        H  0.12817222  0.54455199  0.09474255     0.14500
H676        H  0.07420174  0.49933243  0.13216700     0.13300
H677        H  0.99589870  0.64935400  0.04416035     0.11000
H678        H  0.98372536  0.65258666  0.12276529     0.13000
C679        C  0.34641281  0.49856611  0.21131302     0.19100
C680        C  0.34529969  0.52093934  0.23999798    -0.19000
C681        C  0.37574055  0.53510487  0.25341883    -0.11300
C682        C  0.40819587  0.52688243  0.23851621     0.21300
C683        C  0.40932771  0.50324956  0.21077923    -0.20600
C684        C  0.37886972  0.48923930  0.19727999    -0.11500
C685        C  0.44134723  0.54315976  0.24956596    -0.15600
C686        C  0.44438652  0.56815746  0.27383306    -0.29500
C687        C  0.31314518  0.48608902  0.19664663    -0.03800
C688        C  0.30911158  0.47677587  0.16319613    -0.40300
H689        H  0.32062824  0.52826020  0.25152954     0.12500
H690        H  0.37334848  0.55276602  0.27499782     0.12100
H691        H  0.43391409  0.49603168  0.19900571     0.11500
H692        H  0.38091448  0.47119375  0.17590357     0.11800
H693        H  0.46457690  0.53510023  0.23553967     0.14500
H694        H  0.42216790  0.57697762  0.28878457     0.13300
H695        H  0.29034417  0.48765567  0.21333001     0.11000
H696        H  0.33104447  0.47706225  0.14540304     0.13000
C697        C  0.26691386  0.60320069  0.05856851     0.19100
C698        C  0.26149532  0.63863095  0.06397808    -0.19000
C699        C  0.28119368  0.66279886  0.04558042    -0.11300
C700        C  0.30712623  0.65171102  0.02213889     0.21300
C701        C  0.31319849  0.61627649  0.01755353    -0.20600
C702        C  0.29298572  0.59215383  0.03532382    -0.11500
C703        C  0.32931656  0.67686603  0.00382456    -0.15600
C704        C  0.31618002  0.70651451  0.99135687    -0.29500
C705        C  0.24689666  0.57769297  0.07875120    -0.03800
C706        C  0.23546840  0.54873352  0.06371777    -0.40300
H707        H  0.24197113  0.64753355  0.08228092     0.12500
H708        H  0.27677436  0.69010663  0.05034471     0.12100
H709        H  0.33346119  0.60731431  0.00011748     0.11500
H710        H  0.29831570  0.56483021  0.03156918     0.11800
H711        H  0.35688051  0.67123664  0.00133164     0.14500
H712        H  0.28835143  0.71118305  0.99265716     0.13300
H713        H  0.24330413  0.58188612  0.10642368     0.11000
H714        H  0.23786424  0.54573734  0.03574052     0.13000
C715        C  0.23541376  0.40936265  0.53941478     0.19100
C716        C  0.20725172  0.41050012  0.51637989    -0.19000
C717        C  0.19520133  0.38038191  0.50047731    -0.11300
C718        C  0.21099999  0.34818964  0.50737427     0.21300
C719        C  0.23977034  0.34713158  0.52956093    -0.20600
C720        C  0.25183365  0.37724618  0.54552356    -0.11500
C721        C  0.19812264  0.31512554  0.49252637    -0.15600
C722        C  0.16527748  0.31050576  0.48175447    -0.29500
C723        C  0.24585573  0.44218605  0.55675018    -0.03800
C724        C  0.27143890  0.44520803  0.58033391    -0.40300
H725        H  0.19426381  0.43481327  0.51084033     0.12500
H726        H  0.17362937  0.38259649  0.48271579     0.12100
H727        H  0.25259349  0.32271294  0.53515328     0.11500
H728        H  0.27371563  0.37483679  0.56274132     0.11800
H729        H  0.21550776  0.29286152  0.49339018     0.14500
H730        H  0.14668040  0.33168338  0.48282522     0.13300
H731        H  0.23080809  0.46522899  0.55023940     0.11000
H732        H  0.28726336  0.42309935  0.58771260     0.13000
C733        C  0.02491758  0.32028556  0.64303595     0.19100
C734        C  0.01187704  0.28831614  0.63160727    -0.19000
C735        C  0.03221730  0.26644007  0.61109373    -0.11300
C736        C  0.06562937  0.27649143  0.60046840     0.21300
C737        C  0.07859458  0.30840136  0.61172674    -0.20600
C738        C  0.05841260  0.33010330  0.63271458    -0.11500
C739        C  0.08674417  0.25574484  0.57580187    -0.15600
C740        C  0.07257904  0.23343835  0.55330569    -0.29500
C741        C  0.00557039  0.34295110  0.66755282    -0.03800
C742        C  0.98007821  0.33110350  0.68819061    -0.40300
H743        H  0.98600070  0.27986762  0.63818476     0.12500
H744        H  0.02146886  0.24172731  0.60373439     0.12100
H745        H  0.10420487  0.31682703  0.60380524     0.11500
H746        H  0.06919986  0.35449763  0.64126810     0.11800
H747        H  0.11383731  0.26284553  0.57248666     0.14500
H748        H  0.04506162  0.22783416  0.55416715     0.13300
H749        H  0.01597779  0.36860427  0.67247210     0.11000
H750        H  0.97097582  0.30471588  0.68596194     0.13000
C751        C  0.93062478  0.05480689  0.38937089     0.19100
C752        C  0.92623703  0.09052679  0.39525604    -0.19000
C753        C  0.95430387  0.11142008  0.40426912    -0.11300
C754        C  0.98771497  0.09703810  0.40755131     0.21300
C755        C  0.99211180  0.06129035  0.40176649    -0.20600
C756        C  0.96401950  0.04037763  0.39274569    -0.11500
C757        C  0.01879005  0.11782125  0.41688420    -0.15600
C758        C  0.02003086  0.15278951  0.41915193    -0.29500
C759        C  0.89928386  0.03402739  0.38097115    -0.03800
C760        C  0.89863705  0.99972114  0.37381998    -0.40300
H761        H  0.90079506  0.10240696  0.39309202     0.12500
H762        H  0.94940036  0.13859946  0.40885891     0.12100
H763        H  0.01751973  0.04939513  0.40419928     0.11500
H764        H  0.96876633  0.01306851  0.38879015     0.11800
H765        H  0.04256766  0.10319492  0.42115116     0.14500
H766        H  0.99722450  0.16865071  0.41474494     0.13300
H767        H  0.87479196  0.04813138  0.38134934     0.11000
H768        H  0.92225193  0.98440448  0.37281353     0.13000
C769        C  0.13261300  0.31169843  0.31691561     0.19100
C770        C  0.12759099  0.34784879  0.31859996    -0.19000
C771        C  0.14064066  0.36977061  0.29258618    -0.11300
C772        C  0.15932264  0.35588830  0.26439621     0.21300
C773        C  0.16473287  0.31983126  0.26308059    -0.20600
C774        C  0.15165579  0.29799817  0.28892441    -0.11500
C775        C  0.17151137  0.37683317  0.23424278    -0.15600
C776        C  0.17045179  0.41178491  0.23072723    -0.29500
C777        C  0.11988334  0.28976070  0.34614973    -0.03800
C778        C  0.11797320  0.25468832  0.34609795    -0.40300
H779        H  0.11337077  0.35920115  0.34012894     0.12500
H780        H  0.13556769  0.39728120  0.29446318     0.12100
H781        H  0.17904939  0.30832683  0.24169538     0.11500
H782        H  0.15709698  0.27058061  0.28699414     0.11800
H783        H  0.18085262  0.36167615  0.21230501     0.14500
H784        H  0.16274124  0.42844708  0.25207935     0.13300
H785        H  0.11280810  0.30358227  0.36973690     0.11000
H786        H  0.12366756  0.23988284  0.32285072     0.13000
C787        C  0.11905426  0.06836561  0.55971689     0.19100
C788        C  0.10482938  0.07374056  0.59305744    -0.19000
C789        C  0.09888202  0.04593862  0.61568006    -0.11300
C790        C  0.10716406  0.01199576  0.60539955     0.21300
C791        C  0.12134786  0.00663079  0.57210009    -0.20600
C792        C  0.12717862  0.03437981  0.54945188    -0.11500
C793        C  0.10304285  0.98144386  0.62861923    -0.15600
C794        C  0.08303305  0.97997392  0.65754221    -0.29500
C795        C  0.12597796  0.09917282  0.53744706    -0.03800
C796        C  0.13531020  0.09876512  0.50345814    -0.40300
H797        H  0.09855054  0.09969896  0.60182454     0.12500
H798        H  0.08859391  0.05129466  0.64130326     0.12100
H799        H  0.12819340  0.98074441  0.56357409     0.11500
H800        H  0.13861176  0.02897520  0.52435775     0.11800
H801        H  0.11648235  0.95801682  0.62034677     0.14500
H802        H  0.06759894  0.00205497  0.66583277     0.13300
H803        H  0.12244819  0.12412376  0.55004721     0.11000
H804        H  0.13771675  0.07470890  0.48920375     0.13000
C805        C  0.42040626  0.99244688  0.10159130     0.19100
C806        C  0.42370958  0.99467942  0.06524660    -0.19000
C807        C  0.41165205  0.96826964  0.04378305    -0.11300
C808        C  0.39584772  0.93890988  0.05829031     0.21300
C809        C  0.39273998  0.93656167  0.09463613    -0.20600
C810        C  0.40476928  0.96299704  0.11610685    -0.11500
C811        C  0.38389115  0.90917613  0.03716966    -0.15600
C812        C  0.38196761  0.90806641  0.00210096    -0.29500
C813        C  0.43186315  0.02248295  0.12258881    -0.03800
C814        C  0.43130879  0.02493259  0.15766932    -0.40300
H815        H  0.43558502  0.01713509  0.05329143     0.12500
H816        H  0.41519983  0.97096207  0.01606213     0.12100
H817        H  0.38087328  0.91409281  0.10656087     0.11500
H818        H  0.40133550  0.96024324  0.14383615     0.11800
H819        H  0.37696537  0.88615163  0.05184298     0.14500
H820        H  0.38779190  0.93048217  0.98622422     0.13300
H821        H  0.44006898  0.04492512  0.10764697     0.11000
H822        H  0.42426594  0.00318065  0.17398809     0.13000
C823        C  0.26506237  0.15682734  0.35077361     0.19100
C824        C  0.26034804  0.15031191  0.31518074    -0.19000
C825        C  0.28810271  0.14014075  0.29399680    -0.11300
C826        C  0.32145271  0.13628128  0.30800615     0.21300
C827        C  0.32612350  0.14246109  0.34368594    -0.20600
C828        C  0.29832840  0.15265284  0.36489222    -0.11500
C829        C  0.35243292  0.12682938  0.28680044    -0.15600
C830        C  0.35349986  0.12319738  0.25184605    -0.29500
C831        C  0.23423912  0.16766291  0.37149880    -0.03800
C832        C  0.23292819  0.17319602  0.40620273    -0.40300
H833        H  0.23492607  0.15314894  0.30356856     0.12500
H834        H  0.28309103  0.13548927  0.26683929     0.12100
H835        H  0.35157131  0.13972558  0.35522972     0.11500
H836        H  0.30323863  0.15736233  0.39207453     0.11800
H837        H  0.37648395  0.12410351  0.30113076     0.14500
H838        H  0.33041644  0.12571673  0.23616794     0.13300
H839        H  0.21040398  0.17041522  0.35678261     0.11000
H840        H  0.25570950  0.17043442  0.42233470     0.13000
C841        C  0.30714658  0.31511658  0.12998605     0.19100
C842        C  0.34282536  0.31711962  0.12240168    -0.19000
C843        C  0.36617200  0.29274931  0.13568342    -0.11300
C844        C  0.35424036  0.26589407  0.15714756     0.21300
C845        C  0.31857160  0.26396263  0.16482494    -0.20600
C846        C  0.29522147  0.28832088  0.15151911    -0.11500
C847        C  0.37710002  0.23774832  0.17005212    -0.15600
C848        C  0.41212935  0.23641925  0.16759929    -0.29500
C849        C  0.28425701  0.34323431  0.11709929    -0.03800
C850        C  0.24914809  0.34395612  0.11846364    -0.40300
H851        H  0.35275460  0.33775094  0.10608509     0.12500
H852        H  0.39325768  0.29487831  0.12858783     0.12100
H853        H  0.30864231  0.24337842  0.18119813     0.11500
H854        H  0.26814297  0.28628672  0.15867584     0.11800
H855        H  0.36361255  0.21566655  0.18118352     0.14500
H856        H  0.42708379  0.25815691  0.15803133     0.13300
H857        H  0.29775869  0.36576350  0.10695189     0.11000
H858        H  0.23432199  0.32173296  0.12706383     0.13000
C859        C  0.56505031  0.11469418  0.06492230     0.19100
C860        C  0.59564136  0.09515816  0.06937179    -0.19000
C861        C  0.61798198  0.08851412  0.04138251    -0.11300
C862        C  0.61018382  0.10145850  0.00819498     0.21300
C863        C  0.57938604  0.12067555  0.00372076    -0.20600
C864        C  0.55704839  0.12726820  0.03167688    -0.11500
C865        C  0.63331921  0.09666662  0.97752069    -0.15600
C866        C  0.66205309  0.07642094  0.97594277    -0.29500
C867        C  0.54372213  0.12300839  0.09610378    -0.03800
C868        C  0.51083825  0.13543014  0.09589574    -0.40300
H869        H  0.60253885  0.08531452  0.09478050     0.12500
H870        H  0.64144507  0.07384920  0.04618579     0.12100
H871        H  0.57273460  0.13109594  0.97846888     0.11500
H872        H  0.53419202  0.14298029  0.02719069     0.11800
H873        H  0.62546085  0.11040288  0.95416497     0.14500
H874        H  0.67048648  0.06115523  0.99799765     0.13300
H875        H  0.55595198  0.11804711  0.12100458     0.11000
H876        H  0.49673914  0.13880364  0.07184434     0.13000
C877        C  0.53837331  0.26213217  0.40050171     0.19100
C878        C  0.50841785  0.24152979  0.40079575    -0.19000
C879        C  0.49546350  0.22753929  0.37013834    -0.11300
C880        C  0.51216169  0.23391627  0.33833695     0.21300
C881        C  0.54089995  0.25615526  0.33759612    -0.20600
C882        C  0.55414076  0.26995294  0.36842403    -0.11500
C883        C  0.50062090  0.21718373  0.30574987    -0.15600
C884        C  0.48738163  0.18492912  0.30492894    -0.29500
C885        C  0.55378785  0.27124062  0.43456776    -0.03800
C886        C  0.58136378  0.29199581  0.43981495    -0.40300
H887        H  0.49555507  0.23528495  0.42502976     0.12500
H888        H  0.47258719  0.21142521  0.37146236     0.12100
H889        H  0.55398078  0.26167726  0.31330663     0.11500
H890        H  0.57736280  0.28550205  0.36699421     0.11800
H891        H  0.50610505  0.23050453  0.28146247     0.14500
H892        H  0.48465093  0.17008911  0.32876023     0.13300
H893        H  0.54254739  0.25825442  0.45695656     0.11000
H894        H  0.59253534  0.30718551  0.41896000     0.13000
C895        C  0.59066587  0.03883611  0.27398290     0.19100
C896        C  0.59885948  0.00346930  0.27227234    -0.19000
C897        C  0.62267882  0.98891012  0.29534859    -0.11300
C898        C  0.63831475  0.00950778  0.32088354     0.21300
C899        C  0.62902391  0.04454046  0.32352658    -0.20600
C900        C  0.60554292  0.05918728  0.30018116    -0.11500
C901        C  0.66586630  0.99571101  0.34370444    -0.15600
C902        C  0.68976315  0.97346236  0.33150546    -0.29500
C903        C  0.56398902  0.05312562  0.25047930    -0.03800
C904        C  0.56301610  0.08662046  0.24087266    -0.40300
H905        H  0.58694733  0.98714042  0.25289390     0.12500
H906        H  0.62877557  0.96159405  0.29325610     0.12100
H907        H  0.64056074  0.06077840  0.34319982     0.11500
H908        H  0.59857817  0.08621550  0.30315849     0.11800
H909        H  0.66987057  0.00798603  0.36874659     0.14500
H910        H  0.68816251  0.96427002  0.30492423     0.13300
H911        H  0.54332826  0.03582628  0.24259250     0.11000
H912        H  0.58421209  0.10377686  0.24742440     0.13000
loop_ 
_geom_bond_atom_site_label_1 
_geom_bond_atom_site_label_2 
_geom_bond_distance 
_geom_bond_site_symmetry_2 
_ccdc_geom_bond_type 
O1          Cr19   2.031       .  S
O1            C9   1.271       .  A
O2          Cr19   1.942       .  S
O2            C3   1.251       .  A
C3            O4   1.270       .  A
C3          C814   1.482       .  S
O4          Cr20   2.040       .  S
O5          Cr20   1.960       .  S
O5            C6   1.258       .  A
C6            O7   1.268       .  A
C6          C904   1.470       .  S
O7          Cr21   2.020       .  S
O8          Cr21   1.954       .  S
O8            C9   1.256       .  A
C9          C868   1.480       .  S
O10         Cr19   1.937       .  S
O10          C18   1.251       .  A
O11         Cr19   2.032       .  S
O11          C12   1.271       .  A
C12          O13   1.254       .  A
C12         C830   1.481       .  S
O13         Cr20   1.945       .  S
O14         Cr20   2.029       .  S
O14          C15   1.272       .  A
C15          O16   1.261       .  A
C15         C884   1.476       .  S
O16         Cr21   1.965       .  S
O17         Cr21   2.039       .  S
O17          C18   1.270       .  A
C18         C848   1.479       .  S
Cr19         O22   1.760       .  S
Cr20         O22   1.762       .  S
Cr21         O22   1.769       .  S
O23         Cr41   2.036       .  S
O23          C31   1.274       .  A
O24         Cr41   1.957       .  S
O24          C25   1.251       .  A
C25          O26   1.266       .  A
C25         C758   1.483       .  S
O26         Cr42   2.028       .  S
O27         Cr42   1.963       .  S
O27          C28   1.256       .  A
C28          O29   1.269       .  A
C28         C740   1.463       .  S
O29         Cr43   2.017       .  S
O30         Cr43   1.949       .  S
O30          C31   1.256       .  A
C31         C796   1.484       .  S
O32         Cr41   1.945       .  S
O32          C40   1.250       .  A
O33         Cr41   2.038       .  S
O33          C34   1.275       .  A
C34          O35   1.256       .  A
C34         C778   1.484       .  S
O35         Cr42   1.946       .  S
O36         Cr42   2.023       .  S
O36          C37   1.270       .  A
C37          O38   1.263       .  A
C37         C722   1.477       .  S
O38         Cr43   1.973       .  S
O39         Cr43   2.034       .  S
O39          C40   1.267       .  A
C40         C832   1.483       .  S
Cr41         O44   1.762       .  S
Cr42         O44   1.765       .  S
Cr43         O44   1.773       .  S
O45         Cr63   2.038       .  S
O45          C53   1.274       .  A
O46         Cr63   1.944       .  S
O46          C47   1.250       .  A
C47          O48   1.269       .  A
C47         C776   1.489       .  S
O48         Cr64   2.043       .  S
O49         Cr64   1.971       .  S
O49          C50   1.261       .  A
C50          O51   1.271       .  A
C50         C688   1.479       .  S
O51         Cr65   2.028       .  S
O52         Cr65   1.932       .  S
O52          C53   1.255       .  A
C53         C850   1.480       .  S
O54         Cr63   1.954       .  S
O54          C62   1.252       .  A
O55         Cr63   2.040       .  S
O55          C56   1.274       .  A
C56          O57   1.256       .  A
C56         C668   1.484       .  S
O57         Cr64   1.948       .  S
O58         Cr64   2.024       .  S
O58          C59   1.271       .  A
C59          O60   1.255       .  A
C59         C706   1.464       .  S
O60         Cr65   1.957       .  S
O61         Cr65   2.029       .  S
O61          C62   1.266       .  A
C62         C652   1.483       .  S
Cr63         O66   1.763       .  S
Cr64         O66   1.771       .  S
Cr65         O66   1.766       .  S
O67         Cr85   2.040       .  S
O67          C75   1.276       .  A
O68         Cr85   1.949       .  S
O68          C69   1.252       .  A
C69          O70   1.266       .  A
C69         C614   1.482       .  S
O70         Cr86   2.026       .  S
O71         Cr86   1.968       .  S
O71          C72   1.258   1_655  A
C72          O73   1.266       .  A
C72         C578   1.472       .  S
O73         Cr87   2.019   1_455  S
O74         Cr87   1.943       .  S
O74          C75   1.257       .  A
C75         C650   1.483       .  S
O76         Cr85   1.959       .  S
O76          C84   1.251       .  A
O77         Cr85   2.030       .  S
O77          C78   1.274       .  A
C78          O79   1.255       .  A
C78         C634   1.471       .  S
O79         Cr86   1.947       .  S
O80         Cr86   2.029       .  S
O80          C81   1.273       .  A
C81          O82   1.257       .  A
C81         C742   1.462       .  S
O82         Cr87   1.957       .  S
O83         Cr87   2.024       .  S
O83          C84   1.263       .  A
C84         C596   1.482       .  S
Cr85         O88   1.761       .  S
Cr86         O88   1.775       .  S
Cr87         O88   1.768       .  S
O89        Cr107   2.035       .  S
O89          C97   1.272       .  A
O90        Cr107   1.951       .  S
O90          C91   1.252       .  A
C91          O92   1.267       .  A
C91         C524   1.479       .  S
O92        Cr108   2.036       .  S
O93        Cr108   1.958       .  S
O93          C94   1.256       .  A
C94          O95   1.272       .  A
C94         C902   1.463       .  S
O95        Cr109   2.032       .  S
O96        Cr109   1.949       .  S
O96          C97   1.255       .  A
C97         C506   1.484       .  S
O98        Cr107   1.941       .  S
O98         C106   1.253       .  A
O99        Cr107   2.039       .  S
O99         C100   1.275       .  A
C100        O101   1.259       .  A
C100        C760   1.484       .  S
O101       Cr108   1.954       .  S
O102       Cr108   2.034   1_545  S
O102        C103   1.271       .  A
C103        O104   1.255   1_545  A
C103        C562   1.471       .  S
O104       Cr109   1.961       .  S
O105       Cr109   2.035       .  S
O105        C106   1.269       .  A
C106        C544   1.483       .  S
Cr107       O110   1.755       .  S
Cr108       O110   1.764       .  S
Cr109       O110   1.764       .  S
O111       Cr129   1.978       .  S
O111        C119   1.265       .  A
O112       Cr129   1.983       .  S
O112        C113   1.256       .  A
C113        O114   1.259       .  A
C113        C794   1.483       .  S
O114       Cr130   2.005       .  S
O115       Cr130   1.993       .  S
O115        C116   1.265   1_455  A
C116        O117   1.263       .  A
C116        C454   1.478       .  S
O117       Cr131   1.985   1_655  S
O118       Cr131   2.011       .  S
O118        C119   1.271       .  A
C119        C542   1.473       .  S
O120       Cr129   1.981       .  S
O120        C128   1.253       .  A
O121       Cr129   1.980       .  S
O121        C122   1.266       .  A
C122        O123   1.272       .  A
C122        C488   1.476       .  S
O123       Cr130   2.010       .  S
O124       Cr130   1.989       .  S
O124        C125   1.262       .  A
C125        O126   1.263       .  A
C125        C434   1.482       .  S
O126       Cr131   1.994       .  S
O127       Cr131   2.011       .  S
O127        C128   1.261       .  A
C128        C472   1.471       .  S
Cr129       O132   1.775       .  S
Cr130       O132   1.771       .  S
Cr131       O132   1.773       .  S
O133       Cr151   2.034       .  S
O133        C141   1.271       .  A
O134       Cr151   1.952       .  S
O134        C135   1.253       .  A
C135        O136   1.269       .  A
C135        C398   1.481       .  S
O136       Cr152   2.040       .  S
O137       Cr152   1.970   1_554  S
O137        C138   1.261       .  A
C138        O139   1.272       .  A
C138        C382   1.478       .  S
O139       Cr153   2.027   1_554  S
O140       Cr153   1.942   1_554  S
O140        C141   1.255   1_554  A
C141        C812   1.481   1_556  S
O142       Cr151   1.950       .  S
O142        C150   1.254       .  A
O143       Cr151   2.040       .  S
O143        C144   1.273       .  A
C144        O145   1.257       .  A
C144        C418   1.485       .  S
O145       Cr152   1.954       .  S
O146       Cr152   2.024       .  S
O146        C147   1.270       .  A
C147        O148   1.254       .  A
C147        C704   1.466       .  S
O148       Cr153   1.957       .  S
O149       Cr153   2.033       .  S
O149        C150   1.268       .  A
C150        C490   1.484       .  S
Cr151       O154   1.760       .  S
Cr152       O154   1.768       .  S
Cr153       O154   1.765       .  S
O155       Cr173   1.984       .  S
O155        C163   1.264       .  A
O156       Cr173   1.988       .  S
O156        C157   1.257       .  A
C157        O158   1.259       .  A
C157        C416   1.483       .  S
O158       Cr174   2.002       .  S
O159       Cr174   1.991       .  S
O159        C160   1.265       .  A
C160        O161   1.260       .  A
C160        C580   1.476       .  S
O161       Cr175   1.981       .  S
O162       Cr175   2.002       .  S
O162        C163   1.269       .  A
C163        C470   1.474       .  S
O164       Cr173   1.987       .  S
O164        C172   1.259       .  A
O165       Cr173   1.982       .  S
O165        C166   1.265       .  A
C166        O167   1.271       .  A
C166        C346   1.475       .  S
O167       Cr174   2.007       .  S
O168       Cr174   1.986       .  S
O168        C169   1.262       .  A
C169        O170   1.264       .  A
C169        C724   1.480       .  S
O170       Cr175   1.995       .  S
O171       Cr175   2.001       .  S
O171        C172   1.260       .  A
C172        C364   1.481       .  S
Cr173       O176   1.779       .  S
Cr174       O176   1.769       .  S
Cr175       O176   1.774       .  S
O177       Cr195   1.987       .  S
O177        C185   1.265       .  A
O178       Cr195   1.980       .  S
O178        C179   1.257       .  A
C179        O180   1.260       .  A
C179        C308   1.479       .  S
O180       Cr196   2.005       .  S
O181       Cr196   1.996       .  S
O181        C182   1.265       .  A
C182        O183   1.263       .  A
C182        C686   1.481       .  S
O183       Cr197   1.989       .  S
O184       Cr197   2.004       .  S
O184        C185   1.269       .  A
C185        C362   1.477       .  S
O186       Cr195   1.982       .  S
O186        C194   1.257       .  A
O187       Cr195   1.984       .  S
O187        C188   1.264       .  A
C188        O189   1.271       .  A
C188        C326   1.481       .  S
O189       Cr196   2.012       .  S
O190       Cr196   1.992       .  S
O190        C191   1.263       .  A
C191        O192   1.263       .  A
C191        C380   1.481       .  S
O192       Cr197   1.989       .  S
O193       Cr197   2.004       .  S
O193        C194   1.261       .  A
C194        C508   1.480       .  S
Cr195       O198   1.776       .  S
Cr196       O198   1.775       .  S
Cr197       O198   1.770       .  S
O199       Cr217   1.994       .  S
O199        C207   1.268       .  A
O200       Cr217   1.983       .  S
O200        C201   1.259       .  A
C201        O202   1.263       .  A
C201        C632   1.481       .  S
O202       Cr218   2.005       .  S
O203       Cr218   1.981       .  S
O203        C204   1.261       .  A
C204        O205   1.266       .  A
C204        C560   1.469       .  S
O205       Cr219   1.993       .  S
O206       Cr219   2.005       .  S
O206        C207   1.268       .  A
C207        C292   1.476       .  S
O208       Cr217   1.981       .  S
O208        C216   1.256       .  A
O209       Cr217   1.996       .  S
O209        C210   1.264       .  A
C210        O211   1.266       .  A
C210        C310   1.477       .  S
O211       Cr218   1.993       .  S
O212       Cr218   1.999       .  S
O212        C213   1.264       .  A
C213        O214   1.262       .  A
C213        C886   1.482       .  S
O214       Cr219   1.981       .  S
O215       Cr219   2.002       .  S
O215        C216   1.258       .  A
C216        C344   1.477       .  S
Cr217       O220   1.775       .  S
Cr218       O220   1.771       .  S
Cr219       O220   1.772       .  S
O221       Cr239   1.978       .  S
O221        C229   1.264       .  A
O222       Cr239   1.981       .  S
O222        C223   1.257       .  A
C223        O224   1.260       .  A
C223        C290   1.479       .  S
O224       Cr240   2.004       .  S
O225       Cr240   1.991       .  S
O225        C226   1.264       .  A
C226        O227   1.262       .  A
C226        C452   1.479       .  S
O227       Cr241   1.988       .  S
O228       Cr241   2.013       .  S
O228        C229   1.272       .  A
C229        C598   1.477       .  S
O230       Cr239   1.980       .  S
O230        C238   1.256       .  A
O231       Cr239   1.984       .  S
O231        C232   1.265       .  A
C232        O233   1.270       .  A
C232        C400   1.479   1_545  S
O233       Cr240   2.010       .  S
O234       Cr240   1.984   1_565  S
O234        C235   1.262       .  A
C235        O236   1.265       .  A
C235        C274   1.477       .  S
O236       Cr241   1.994   1_565  S
O237       Cr241   2.004       .  S
O237        C238   1.259       .  A
C238        C866   1.481       .  S
Cr239       O242   1.775       .  S
Cr240       O242   1.774       .  S
Cr241       O242   1.770       .  S
O243       Cr261   1.975       .  S
O243        C251   1.266       .  A
O244       Cr261   1.981       .  S
O244        C245   1.254       .  A
C245        O246   1.259       .  A
C245        C328   1.483       .  S
O246       Cr262   2.010       .  S
O247       Cr262   1.987       .  S
O247        C248   1.264       .  A
C248        O249   1.262       .  A
C248        C272   1.479       .  S
O249       Cr263   1.987       .  S
O250       Cr263   2.017       .  S
O250        C251   1.274       .  A
C251        C526   1.475       .  S
O252       Cr261   1.986       .  S
O252        C260   1.251       .  A
O253       Cr261   1.982       .  S
O253        C254   1.267       .  A
C254        O255   1.273       .  A
C254        C616   1.477       .  S
O255       Cr262   2.010       .  S
O256       Cr262   1.989   1_556  S
O256        C257   1.262       .  A
C257        O258   1.264   1_556  A
C257        C436   1.483       .  S
O258       Cr263   1.995       .  S
O259       Cr263   2.016       .  S
O259        C260   1.260       .  A
C260        C670   1.474       .  S
Cr261       O264   1.778       .  S
Cr262       O264   1.771       .  S
Cr263       O264   1.771       .  S
C265        C273   1.488       .  S
C265        C266   1.405       .  A
C265        C270   1.406       .  A
C266        C267   1.399   1_556  A
C266        H275   1.084   1_556  S
C267        C268   1.407   1_554  A
C267        H276   1.080       .  S
C268        C271   1.488   1_556  S
C268        C269   1.404       .  A
C269        C270   1.396       .  A
C269        H277   1.084       .  S
C270        H278   1.080       .  S
C271        H279   1.087   1_554  S
C271        C272   1.349       .  D
C272        H280   1.083       .  S
C273        H281   1.087       .  S
C273        C274   1.349       .  D
C274        H282   1.083       .  S
C283        C291   1.488       .  S
C283        C284   1.401       .  A
C283        C288   1.410       .  A
C284        C285   1.400       .  A
C284        H293   1.085       .  S
C285        C286   1.406       .  A
C285        H294   1.082       .  S
C286        C289   1.484       .  S
C286        C287   1.403       .  A
C287        C288   1.400       .  A
C287        H295   1.083       .  S
C288        H296   1.081       .  S
C289        H297   1.087       .  S
C289        C290   1.351       .  D
C290        H298   1.085       .  S
C291        H299   1.087       .  S
C291        C292   1.344       .  D
C292        H300   1.087       .  S
C301        C309   1.482       .  S
C301        C302   1.405       .  A
C301        C306   1.403       .  A
C302        C303   1.399       .  A
C302        H311   1.085       .  S
C303        C304   1.404       .  A
C303        H312   1.081       .  S
C304        C307   1.485       .  S
C304        C305   1.407       .  A
C305        C306   1.400       .  A
C305        H313   1.085       .  S
C306        H314   1.082       .  S
C307        H315   1.088       .  S
C307        C308   1.351       .  D
C308        H316   1.085       .  S
C309        H317   1.089       .  S
C309        C310   1.349       .  D
C310        H318   1.086       .  S
C319        C327   1.485       .  S
C319        C320   1.405       .  A
C319        C324   1.404       .  A
C320        C321   1.398       .  A
C320        H329   1.085       .  S
C321        C322   1.406       .  A
C321        H330   1.081       .  S
C322        C325   1.493       .  S
C322        C323   1.408       .  A
C323        C324   1.403       .  A
C323        H331   1.085       .  S
C324        H332   1.082       .  S
C325        H333   1.089       .  S
C325        C326   1.350       .  D
C326        H334   1.086       .  S
C327        H335   1.088       .  S
C327        C328   1.351       .  D
C328        H336   1.086       .  S
C337        C345   1.486       .  S
C337        C338   1.407       .  A
C337        C342   1.405       .  A
C338        C339   1.401       .  A
C338        H347   1.085       .  S
C339        C340   1.404       .  A
C339        H348   1.081       .  S
C340        C343   1.481       .  S
C340        C341   1.404       .  A
C341        C342   1.396       .  A
C341        H349   1.085       .  S
C342        H350   1.080       .  S
C343        H351   1.089       .  S
C343        C344   1.349       .  D
C344        H352   1.086       .  S
C345        H353   1.089       .  S
C345        C346   1.348       .  D
C346        H354   1.086       .  S
C355        C363   1.484       .  S
C355        C356   1.405       .  A
C355        C360   1.405       .  A
C356        C357   1.401       .  A
C356        H365   1.082       .  S
C357        C358   1.406       .  A
C357        H366   1.083       .  S
C358        C361   1.485       .  S
C358        C359   1.404       .  A
C359        C360   1.397       .  A
C359        H367   1.082       .  S
C360        H368   1.083       .  S
C361        H369   1.087       .  S
C361        C362   1.349       .  D
C362        H370   1.086       .  S
C363        H371   1.087       .  S
C363        C364   1.350       .  D
C364        H372   1.085       .  S
C373        C381   1.489       .  S
C373        C374   1.405       .  A
C373        C378   1.406       .  A
C374        C375   1.401       .  A
C374        H383   1.083       .  S
C375        C376   1.407       .  A
C375        H384   1.080       .  S
C376        C379   1.490       .  S
C376        C377   1.406       .  A
C377        C378   1.397       .  A
C377        H385   1.084       .  S
C378        H386   1.081       .  S
C379        H387   1.087       .  S
C379        C380   1.351       .  D
C380        H388   1.083       .  S
C381        H389   1.087       .  S
C381        C382   1.349       .  D
C382        H390   1.085       .  S
C391        C399   1.491       .  S
C391        C392   1.407       .  A
C391        C396   1.406       .  A
C392        C393   1.404       .  A
C392        H401   1.083       .  S
C393        C394   1.406       .  A
C393        H402   1.083       .  S
C394        C397   1.485       .  S
C394        C395   1.403       .  A
C395        C396   1.397       .  A
C395        H403   1.083       .  S
C396        H404   1.082       .  S
C397        H405   1.088       .  S
C397        C398   1.350       .  D
C398        H406   1.085       .  S
C399        H407   1.087       .  S
C399        C400   1.351       .  D
C400        H408   1.085       .  S
C409        C417   1.489       .  S
C409        C410   1.406       .  A
C409        C414   1.404       .  A
C410        C411   1.400       .  A
C410        H419   1.084       .  S
C411        C412   1.407       .  A
C411        H420   1.079       .  S
C412        C415   1.494       .  S
C412        C413   1.408       .  A
C413        C414   1.401       .  A
C413        H421   1.083       .  S
C414        H422   1.081       .  S
C415        H423   1.087       .  S
C415        C416   1.354       .  D
C416        H424   1.083       .  S
C417        H425   1.088       .  S
C417        C418   1.354       .  D
C418        H426   1.085       .  S
C427        C435   1.494       .  S
C427        C428   1.406       .  A
C427        C432   1.409       .  A
C428        C429   1.400       .  A
C428        H437   1.083       .  S
C429        C430   1.406       .  A
C429        H438   1.082   1_655  S
C430        C433   1.490   1_655  S
C430        C431   1.405       .  A
C431        C432   1.401       .  A
C431        H439   1.083       .  S
C432        H440   1.080       .  S
C433        H441   1.087   1_455  S
C433        C434   1.350       .  D
C434        H442   1.084       .  S
C435        H443   1.087       .  S
C435        C436   1.351       .  D
C436        H444   1.083       .  S
C445        C453   1.487       .  S
C445        C446   1.405       .  A
C445        C450   1.406       .  A
C446        C447   1.399   1_565  A
C446        H455   1.084   1_565  S
C447        C448   1.406   1_545  A
C447        H456   1.084       .  S
C448        C451   1.487       .  S
C448        C449   1.404       .  A
C449        C450   1.397       .  A
C449        H457   1.086       .  S
C450        H458   1.081       .  S
C451        H459   1.088       .  S
C451        C452   1.349   1_565  D
C452        H460   1.085       .  S
C453        H461   1.084       .  S
C453        C454   1.349       .  D
C454        H462   1.081       .  S
C463        C471   1.483       .  S
C463        C464   1.400       .  A
C463        C468   1.407       .  A
C464        C465   1.401       .  A
C464        H473   1.083       .  S
C465        C466   1.407       .  A
C465        H474   1.083       .  S
C466        C469   1.484       .  S
C466        C467   1.404       .  A
C467        C468   1.396       .  A
C467        H475   1.082       .  S
C468        H476   1.083       .  S
C469        H477   1.088       .  S
C469        C470   1.348       .  D
C470        H478   1.086       .  S
C471        H479   1.086       .  S
C471        C472   1.340       .  D
C472        H480   1.088       .  S
C481        C489   1.487       .  S
C481        C482   1.406       .  A
C481        C486   1.406       .  A
C482        C483   1.395       .  A
C482        H491   1.084       .  S
C483        C484   1.404       .  A
C483        H492   1.081       .  S
C484        C487   1.487       .  S
C484        C485   1.406       .  A
C485        C486   1.402       .  A
C485        H493   1.084       .  S
C486        H494   1.080       .  S
C487        H495   1.088       .  S
C487        C488   1.349       .  D
C488        H496   1.086       .  S
C489        H497   1.088       .  S
C489        C490   1.353       .  D
C490        H498   1.085       .  S
C499        C507   1.486       .  S
C499        C500   1.407       .  A
C499        C504   1.403       .  A
C500        C501   1.400       .  A
C500        H509   1.083       .  S
C501        C502   1.405       .  A
C501        H510   1.081       .  S
C502        C505   1.488       .  S
C502        C503   1.408       .  A
C503        C504   1.398       .  A
C503        H511   1.083       .  S
C504        H512   1.082       .  S
C505        H513   1.087       .  S
C505        C506   1.354       .  D
C506        H514   1.084       .  S
C507        H515   1.088       .  S
C507        C508   1.352       .  D
C508        H516   1.085       .  S
C517        C525   1.489       .  S
C517        C518   1.406       .  A
C517        C522   1.407       .  A
C518        C519   1.402       .  A
C518        H527   1.083       .  S
C519        C520   1.406       .  A
C519        H528   1.082       .  S
C520        C523   1.483       .  S
C520        C521   1.403       .  A
C521        C522   1.396       .  A
C521        H529   1.083       .  S
C522        H530   1.081       .  S
C523        H531   1.088       .  S
C523        C524   1.350       .  D
C524        H532   1.085       .  S
C525        H533   1.087       .  S
C525        C526   1.349       .  D
C526        H534   1.084       .  S
C535        C543   1.484       .  S
C535        C536   1.406       .  A
C535        C540   1.406       .  A
C536        C537   1.393       .  A
C536        H545   1.083       .  S
C537        C538   1.403       .  A
C537        H546   1.082       .  S
C538        C541   1.484       .  S
C538        C539   1.406       .  A
C539        C540   1.402       .  A
C539        H547   1.083       .  S
C540        H548   1.081       .  S
C541        H549   1.087       .  S
C541        C542   1.348   1_655  D
C542        H550   1.085       .  S
C543        H551   1.087       .  S
C543        C544   1.353       .  D
C544        H552   1.083       .  S
C553        C561   1.485       .  S
C553        C554   1.400       .  A
C553        C558   1.411       .  A
C554        C555   1.395       .  A
C554        H563   1.083       .  S
C555        C556   1.408       .  A
C555        H564   1.083       .  S
C556        C559   1.482       .  S
C556        C557   1.400       .  A
C557        C558   1.400       .  A
C557        H565   1.083       .  S
C558        H566   1.082       .  S
C559        H567   1.086       .  S
C559        C560   1.340       .  D
C560        H568   1.087       .  S
C561        H569   1.087       .  S
C561        C562   1.342       .  D
C562        H570   1.085       .  S
C571        C579   1.484       .  S
C571        C572   1.404       .  A
C571        C576   1.407       .  A
C572        C573   1.395       .  A
C572        H581   1.083       .  S
C573        C574   1.405       .  A
C573        H582   1.082       .  S
C574        C577   1.482       .  S
C574        C575   1.404       .  A
C575        C576   1.398       .  A
C575        H583   1.084       .  S
C576        H584   1.081       .  S
C577        H585   1.087       .  S
C577        C578   1.346       .  D
C578        H586   1.085       .  S
C579        H587   1.087       .  S
C579        C580   1.347       .  D
C580        H588   1.084       .  S
C589        C597   1.490       .  S
C589        C590   1.406       .  A
C589        C594   1.406       .  A
C590        C591   1.401       .  A
C590        H599   1.083       .  S
C591        C592   1.407       .  A
C591        H600   1.081       .  S
C592        C595   1.489       .  S
C592        C593   1.405       .  A
C593        C594   1.397       .  A
C593        H601   1.084       .  S
C594        H602   1.081       .  S
C595        H603   1.088       .  S
C595        C596   1.351       .  D
C596        H604   1.084       .  S
C597        H605   1.088       .  S
C597        C598   1.349       .  D
C598        H606   1.084       .  S
C607        C615   1.491       .  S
C607        C608   1.408       .  A
C607        C612   1.407       .  A
C608        C609   1.401       .  A
C608        H617   1.083       .  S
C609        C610   1.405       .  A
C609        H618   1.081       .  S
C610        C613   1.485       .  S
C610        C611   1.404       .  A
C611        C612   1.396       .  A
C611        H619   1.084       .  S
C612        H620   1.079       .  S
C613        H621   1.087       .  S
C613        C614   1.352       .  D
C614        H622   1.083       .  S
C615        H623   1.087       .  S
C615        C616   1.351   1_556  D
C616        H624   1.082       .  S
C625        C633   1.488       .  S
C625        C626   1.400       .  A
C625        C630   1.412       .  A
C626        C627   1.398       .  A
C626        H635   1.084       .  S
C627        C628   1.406       .  A
C627        H636   1.082       .  S
C628        C631   1.484       .  S
C628        C629   1.404       .  A
C629        C630   1.401       .  A
C629        H637   1.083       .  S
C630        H638   1.081       .  S
C631        H639   1.087       .  S
C631        C632   1.352       .  D
C632        H640   1.084       .  S
C633        H641   1.087       .  S
C633        C634   1.341       .  D
C634        H642   1.086       .  S
C643        C651   1.490   1_556  S
C643        C644   1.407       .  A
C643        C648   1.405       .  A
C644        C645   1.399       .  A
C644        H653   1.083   1_556  S
C645        C646   1.404       .  A
C645        H654   1.079       .  S
C646        C649   1.490       .  S
C646        C647   1.408       .  A
C647        C648   1.400       .  A
C647        H655   1.084       .  S
C648        H656   1.079       .  S
C649        H657   1.087       .  S
C649        C650   1.356   1_455  D
C650        H658   1.083       .  S
C651        H659   1.088       .  S
C651        C652   1.354       .  D
C652        H660   1.084   1_554  S
C661        C669   1.493   1_455  S
C661        C662   1.401       .  A
C661        C666   1.412       .  A
C662        C663   1.400       .  A
C662        H671   1.083       .  S
C663        C664   1.406       .  A
C663        H672   1.084       .  S
C664        C667   1.486       .  S
C664        C665   1.404       .  A
C665        C666   1.403       .  A
C665        H673   1.082       .  S
C666        H674   1.081   1_455  S
C667        H675   1.088       .  S
C667        C668   1.354       .  D
C668        H676   1.085       .  S
C669        H677   1.087       .  S
C669        C670   1.344       .  D
C670        H678   1.085       .  S
C679        C687   1.487       .  S
C679        C680   1.404       .  A
C679        C684   1.405       .  A
C680        C681   1.399       .  A
C680        H689   1.083       .  S
C681        C682   1.408       .  A
C681        H690   1.079       .  S
C682        C685   1.492       .  S
C682        C683   1.407       .  A
C683        C684   1.399       .  A
C683        H691   1.083       .  S
C684        H692   1.082       .  S
C685        H693   1.087       .  S
C685        C686   1.351       .  D
C686        H694   1.083       .  S
C687        H695   1.087       .  S
C687        C688   1.348       .  D
C688        H696   1.085       .  S
C697        C705   1.473       .  S
C697        C698   1.398       .  A
C697        C702   1.407       .  A
C698        C699   1.396       .  A
C698        H707   1.083       .  S
C699        C700   1.408       .  A
C699        H708   1.083       .  S
C700        C703   1.474       .  S
C700        C701   1.398       .  A
C701        C702   1.394       .  A
C701        H709   1.083       .  S
C702        H710   1.083       .  S
C703        H711   1.087       .  S
C703        C704   1.338   1_554  D
C704        H712   1.087       .  S
C705        H713   1.086       .  S
C705        C706   1.338       .  D
C706        H714   1.087       .  S
C715        C723   1.492       .  S
C715        C716   1.406       .  A
C715        C720   1.409       .  A
C716        C717   1.398       .  A
C716        H725   1.083       .  S
C717        C718   1.406       .  A
C717        H726   1.082       .  S
C718        C721   1.489       .  S
C718        C719   1.404       .  A
C719        C720   1.400       .  A
C719        H727   1.084       .  S
C720        H728   1.079       .  S
C721        H729   1.087       .  S
C721        C722   1.347       .  D
C722        H730   1.085       .  S
C723        H731   1.089       .  S
C723        C724   1.350       .  D
C724        H732   1.084       .  S
C733        C741   1.484       .  S
C733        C734   1.408       .  A
C733        C738   1.403       .  A
C734        C735   1.393       .  A
C734        H743   1.080   1_455  S
C735        C736   1.406       .  A
C735        H744   1.081       .  S
C736        C739   1.481       .  S
C736        C737   1.403       .  A
C737        C738   1.396       .  A
C737        H745   1.083       .  S
C738        H746   1.084       .  S
C739        H747   1.088       .  S
C739        C740   1.343       .  D
C740        H748   1.084       .  S
C741        H749   1.088       .  S
C741        C742   1.342   1_455  D
C742        H750   1.083       .  S
C751        C759   1.492       .  S
C751        C752   1.407       .  A
C751        C756   1.406       .  A
C752        C753   1.399       .  A
C752        H761   1.084       .  S
C753        C754   1.405       .  A
C753        H762   1.080       .  S
C754        C757   1.492   1_655  S
C754        C755   1.408       .  A
C755        C756   1.400       .  A
C755        H763   1.083   1_655  S
C756        H764   1.080       .  S
C757        H765   1.087       .  S
C757        C758   1.354       .  D
C758        H766   1.082   1_455  S
C759        H767   1.087       .  S
C759        C760   1.354   1_545  D
C760        H768   1.083       .  S
C769        C777   1.490       .  S
C769        C770   1.409       .  A
C769        C774   1.403       .  A
C770        C771   1.403       .  A
C770        H779   1.083       .  S
C771        C772   1.405       .  A
C771        H780   1.081       .  S
C772        C775   1.489       .  S
C772        C773   1.407       .  A
C773        C774   1.397       .  A
C773        H781   1.083       .  S
C774        H782   1.081       .  S
C775        H783   1.087       .  S
C775        C776   1.356       .  D
C776        H784   1.084       .  S
C777        H785   1.087       .  S
C777        C778   1.357       .  D
C778        H786   1.084       .  S
C787        C795   1.490       .  S
C787        C788   1.409       .  A
C787        C792   1.404       .  A
C788        C789   1.400       .  A
C788        H797   1.084       .  S
C789        C790   1.404       .  A
C789        H798   1.081       .  S
C790        C793   1.488   1_545  S
C790        C791   1.407       .  A
C791        C792   1.399       .  A
C791        H799   1.083   1_545  S
C792        H800   1.080       .  S
C793        H801   1.087       .  S
C793        C794   1.353       .  D
C794        H802   1.084   1_565  S
C795        H803   1.087       .  S
C795        C796   1.356       .  D
C796        H804   1.083       .  S
C805        C813   1.486   1_565  S
C805        C806   1.407       .  A
C805        C810   1.404       .  A
C806        C807   1.397       .  A
C806        H815   1.084   1_565  S
C807        C808   1.404       .  A
C807        H816   1.081       .  S
C808        C811   1.485       .  S
C808        C809   1.407       .  A
C809        C810   1.398       .  A
C809        H817   1.083       .  S
C810        H818   1.081       .  S
C811        H819   1.086       .  S
C811        C812   1.354       .  D
C812        H820   1.083   1_554  S
C813        H821   1.087       .  S
C813        C814   1.355       .  D
C814        H822   1.083       .  S
C823        C831   1.486       .  S
C823        C824   1.407       .  A
C823        C828   1.404       .  A
C824        C825   1.397       .  A
C824        H833   1.084       .  S
C825        C826   1.404       .  A
C825        H834   1.080       .  S
C826        C829   1.487       .  S
C826        C827   1.408       .  A
C827        C828   1.399       .  A
C827        H835   1.084       .  S
C828        H836   1.081       .  S
C829        H837   1.086       .  S
C829        C830   1.354       .  D
C830        H838   1.082       .  S
C831        H839   1.087       .  S
C831        C832   1.355       .  D
C832        H840   1.083       .  S
C841        C849   1.481       .  S
C841        C842   1.407       .  A
C841        C846   1.403       .  A
C842        C843   1.396       .  A
C842        H851   1.084       .  S
C843        C844   1.403       .  A
C843        H852   1.081       .  S
C844        C847   1.482       .  S
C844        C845   1.407       .  A
C845        C846   1.396       .  A
C845        H853   1.084       .  S
C846        H854   1.081       .  S
C847        H855   1.087       .  S
C847        C848   1.354       .  D
C848        H856   1.084       .  S
C849        H857   1.087       .  S
C849        C850   1.354       .  D
C850        H858   1.084       .  S
C859        C867   1.486       .  S
C859        C860   1.407       .  A
C859        C864   1.404       .  A
C860        C861   1.399       .  A
C860        H869   1.083       .  S
C861        C862   1.405       .  A
C861        H870   1.081       .  S
C862        C865   1.487   1_554  S
C862        C863   1.407       .  A
C863        C864   1.398       .  A
C863        H871   1.083   1_554  S
C864        H872   1.081       .  S
C865        H873   1.087       .  S
C865        C866   1.353       .  D
C866        H874   1.083       .  S
C867        H875   1.087       .  S
C867        C868   1.352       .  D
C868        H876   1.084       .  S
C877        C885   1.487       .  S
C877        C878   1.406       .  A
C877        C882   1.407       .  A
C878        C879   1.396       .  A
C878        H887   1.082       .  S
C879        C880   1.403       .  A
C879        H888   1.083       .  S
C880        C883   1.484       .  S
C880        C881   1.406       .  A
C881        C882   1.402       .  A
C881        H889   1.082       .  S
C882        H890   1.082       .  S
C883        H891   1.087       .  S
C883        C884   1.349       .  D
C884        H892   1.086       .  S
C885        H893   1.086       .  S
C885        C886   1.351       .  D
C886        H894   1.083       .  S
C895        C903   1.477       .  S
C895        C896   1.401       .  A
C895        C900   1.407       .  A
C896        C897   1.396   1_545  A
C896        H905   1.084   1_545  S
C897        C898   1.407   1_565  A
C897        H906   1.082       .  S
C898        C901   1.478   1_545  S
C898        C899   1.401       .  A
C899        C900   1.396       .  A
C899        H907   1.083       .  S
C900        H908   1.082       .  S
C901        H909   1.088   1_565  S
C901        C902   1.339       .  D
C902        H910   1.086       .  S
C903        H911   1.087       .  S
C903        C904   1.345       .  D
C904        H912   1.086       .  S
