geometry optimzed in LAMMPS
_audit_creation_date              2020-11-30 
_audit_creation_method            'lammps2cif' 
_symmetry_space_group_name_H-M    'P1' 
_symmetry_Int_Tables_number       1 
_symmetry_cell_setting            triclinic 
loop_ 
_symmetry_equiv_pos_as_xyz 
  x,y,z 
_cell_length_a                    36.0304851 
_cell_length_b                    36.06307848844967 
_cell_length_c                    35.937222802989886 
_cell_angle_alpha                 90.14804188458534 
_cell_angle_beta                  89.92557322769706 
_cell_angle_gamma                 90.26154681052645 
loop_ 
_atom_site_label 
_atom_site_type_symbol 
_atom_site_fract_x 
_atom_site_fract_y 
_atom_site_fract_z 
_atom_site_charge 
Zr1        Zr  0.48580596  0.06966334  0.17344432     2.17500
O2          O  0.49669034  0.00288201  0.17299932    -0.51000
O3          O  0.52277062  0.07990094  0.11778710    -0.74200
O4          O  0.44982925  0.03812875  0.12684983    -0.81000
O5          O  0.54936481  0.07467472  0.25635392    -0.82800
O6          O  0.39684810  0.06995358  0.11468154    -0.78400
O7          O  0.54026126  0.04212562  0.20281247    -0.90000
O8          O  0.52217715  0.14081013  0.10327677    -0.76000
O9          O  0.46236743  0.12049870  0.13852967    -0.85500
O10         O  0.52205306  0.12157394  0.19197783    -0.85200
O11         O  0.42074778  0.07360902  0.18924554    -0.71900
O12         O  0.47539526  0.07491023  0.23902841    -0.84100
Zr13       Zr  0.42295115  0.18330474  0.24028697     2.26400
Zr14       Zr  0.39801336  0.12614231  0.15442924     2.06300
Zr15       Zr  0.51016090  0.12841765  0.25698179     2.10000
Zr16       Zr  0.49825017  0.17243411  0.15796975     1.78800
O17         O  0.51985183  0.10682685  0.32036232    -0.92900
O18         O  0.47818079  0.21018659  0.10574076    -0.40700
O19         O  0.48740120  0.18033264  0.22344141    -0.77300
O20         O  0.43434640  0.17892512  0.17412316    -0.96000
O21         O  0.38739576  0.13130963  0.22003965    -0.89300
O22         O  0.44640529  0.13275564  0.27494627    -0.92100
C23         C  0.52988267  0.10695672  0.09569742     1.01600
C24         C  0.55669905  0.04796750  0.23402436     1.14500
C25         C  0.41903037  0.04230691  0.10977125     1.05300
O26         O  0.39159673  0.14650735  0.09024698    -0.94300
O27         O  0.36029132  0.18380394  0.15338504    -0.90000
O28         O  0.37653054  0.21542205  0.20551036    -0.83200
C29         C  0.35790313  0.21212054  0.17547229     1.12000
O30         O  0.42528750  0.01664939  0.27084769    -0.96300
Zr31       Zr  0.41115549  0.08065792  0.25483139     1.88900
O32         O  0.36751303  0.17171367  0.27819631    -0.72900
O33         O  0.33374872  0.10506597  0.15630216    -0.52200
O34         O  0.36177675  0.03604424  0.24213885    -0.96900
O35         O  0.41640803  0.07642513  0.32238294    -0.54100
O36         O  0.35582861  0.10998073  0.27901457    -0.73400
C37         C  0.34676284  0.14360711  0.28597615     0.98900
O38         O  0.42150107  0.24970169  0.25380273    -0.62300
O39         O  0.57287264  0.15334090  0.25126815    -0.57100
O40         O  0.45491953  0.21125071  0.29335120    -0.93700
O41         O  0.51037831  0.18179096  0.29753948    -0.92200
O42         O  0.56490021  0.18422290  0.15996095    -0.92500
O43         O  0.51110743  0.23829880  0.16601946    -0.91300
C44         C  0.48744114  0.20709199  0.30732960     1.17800
H45         H  0.54807371  0.11758759  0.18688159     0.33700
H46         H  0.42691789  0.20120521  0.16142618     0.44500
H47         H  0.44386659  0.13720395  0.30132626     0.38100
H48         H  0.40778292  0.05117935  0.18223623     0.34600
H49         H  0.50048740  0.21268680  0.08979999     0.26300
H50         H  0.32537129  0.10635852  0.13010257     0.32300
H51         H  0.34103267  0.05105807  0.23238688     0.38200
H52         H  0.57278180  0.18526521  0.13357407     0.32600
H53         H  0.56943865  0.18003334  0.24595790     0.31500
H54         H  0.54677176  0.11013163  0.32485830     0.33200
H55         H  0.43973636  0.06276192  0.32693363     0.32200
H56         H  0.49221055  0.24685846  0.18410188     0.36200
H57         H  0.42121096  0.26258695  0.22950166     0.28900
H58         H  0.50348322  0.99645611  0.14706049     0.33100
H59         H  0.43512261  0.00568312  0.24756884     0.36000
H60         H  0.58308856  0.15266011  0.27681287     0.28600
H61         H  0.39680624  0.25437709  0.26494821     0.41500
H62         H  0.41375677  0.13661825  0.07735262     0.31500
H63         H  0.46127853  0.19381550  0.09142715     0.39100
H64         H  0.39641187  0.05909679  0.32998110     0.31000
H65         H  0.33525045  0.07819663  0.16164782     0.31100
H66         H  0.47208917  0.99122778  0.17710055     0.31300
Zr67       Zr  0.07025226  0.17385846  0.49187699     2.17500
O68         O  0.00555514  0.16732394  0.51122998    -0.51000
O69         O  0.08526049  0.11896034  0.52854883    -0.74200
O70         O  0.03685863  0.12734129  0.45681298    -0.81000
O71         O  0.07066633  0.26242812  0.54747446    -0.82800
O72         O  0.06910178  0.11120128  0.40493249    -0.78400
O73         O  0.04116398  0.20679943  0.54352640    -0.90000
O74         O  0.14687158  0.10754405  0.52759983    -0.76000
O75         O  0.12220374  0.13982711  0.47015377    -0.85500
O76         O  0.12168321  0.19819512  0.52558907    -0.85200
O77         O  0.07213001  0.18546258  0.42572342    -0.71900
O78         O  0.07224118  0.23849040  0.47565830    -0.84100
Zr79       Zr  0.18054545  0.24011986  0.42209166     2.26400
Zr80       Zr  0.12526188  0.15096220  0.40464244     2.06300
Zr81       Zr  0.12499194  0.26225884  0.50813582     2.10000
Zr82       Zr  0.17387632  0.16455674  0.50320092     1.78800
O83         O  0.09944358  0.32380380  0.51886131    -0.92900
O84         O  0.21818225  0.11715272  0.48455702    -0.40700
O85         O  0.17849033  0.22928025  0.48784689    -0.77300
O86         O  0.17819161  0.17533936  0.43772753    -0.96000
O87         O  0.12890864  0.21526302  0.38906905    -0.89300
O88         O  0.12822321  0.27410788  0.44285202    -0.92100
C89         C  0.11333693  0.09809366  0.53519461     1.01600
C90         C  0.04492669  0.23964654  0.55691613     1.14500
C91         C  0.04074300  0.10848849  0.42681350     1.05300
O92         O  0.15031944  0.08844910  0.40758174    -0.94300
O93         O  0.18011894  0.15093936  0.36375820    -0.90000
O94         O  0.21002416  0.20598770  0.37282673    -0.83200
C95         C  0.20668395  0.17418324  0.35727133     1.12000
O96         O  0.01022082  0.25470668  0.42146070    -0.96300
Zr97       Zr  0.07674793  0.24951174  0.40993386     1.88900
O98         O  0.16822739  0.27526339  0.36598821    -0.72900
O99         O  0.10468956  0.14547926  0.34037060    -0.52200
O100        O  0.03999898  0.22861269  0.35692775    -0.96900
O101        O  0.06105407  0.31513430  0.41458277    -0.54100
O102        O  0.10643521  0.27616506  0.35491666    -0.73400
C103        C  0.14018388  0.28312755  0.34550178     0.98900
O104        O  0.24807285  0.24717624  0.42344737    -0.62300
O105        O  0.15741301  0.26428898  0.56758068    -0.57100
O106        O  0.20394306  0.29919828  0.44583465    -0.93700
O107        O  0.17004027  0.31126531  0.49791494    -0.92200
O108        O  0.18363592  0.16965375  0.57010618    -0.92500
O109        O  0.23857891  0.17873138  0.51695927    -0.91300
C110        C  0.19541339  0.31925178  0.47413299     1.17800
H111        H  0.11816426  0.19517491  0.55206704     0.33700
H112        H  0.20069193  0.16329933  0.42971267     0.44500
H113        H  0.13097147  0.30021012  0.43759050     0.38100
H114        H  0.04968544  0.17746874  0.41344483     0.34600
H115        H  0.22307935  0.10289191  0.50752897     0.26300
H116        H  0.10113176  0.11853847  0.33626869     0.32300
H117        H  0.03385597  0.25153561  0.34317626     0.38200
H118        H  0.19211575  0.14474519  0.57779326     0.32600
H119        H  0.15928430  0.29099293  0.57379984     0.31500
H120        H  0.10957106  0.33173555  0.54322880     0.33200
H121        H  0.08149986  0.32857583  0.40196584     0.32200
H122        H  0.24666900  0.19525943  0.49650846     0.36200
H123        H  0.25435952  0.25192268  0.44985623     0.28900
H124        H  0.00203744  0.14082479  0.51755314     0.33100
H125        H  0.00096216  0.27298861  0.40322840     0.36000
H126        H  0.13942138  0.25423685  0.58583547     0.28600
H127        H  0.25831956  0.22217308  0.41876198     0.41500
H128        H  0.13411525  0.07516558  0.42543955     0.31500
H129        H  0.20374140  0.09993913  0.46862070     0.39100
H130        H  0.06400967  0.32133142  0.44127796     0.31000
H131        H  0.07928390  0.15583265  0.34038343     0.31100
H132        H  0.99053581  0.17131004  0.48853892     0.31300
Zr133      Zr  0.23863678  0.42729347  0.18316269     2.17500
O134        O  0.24969715  0.42655722  0.25012387    -0.51000
O135        O  0.27679074  0.37289363  0.17123530    -0.74200
O136        O  0.20312172  0.37936525  0.21330939    -0.81000
O137        O  0.29426604  0.51566223  0.18426058    -0.82800
O138        O  0.15302883  0.36266710  0.17857844    -0.78400
O139        O  0.29095951  0.45950036  0.21257040    -0.90000
O140        O  0.27967517  0.36198288  0.10932348    -0.76000
O141        O  0.21883061  0.39298574  0.13005670    -0.85500
O142        O  0.27438849  0.45078742  0.13291435    -0.85200
O143        O  0.17282623  0.43813667  0.17782418    -0.71900
O144        O  0.22348319  0.49179329  0.18063013    -0.84100
Zr145      Zr  0.17353144  0.49257656  0.06934813     2.26400
Zr146      Zr  0.15357949  0.40383881  0.12342875     2.06300
Zr147      Zr  0.25737515  0.51462038  0.12853030     2.10000
Zr148      Zr  0.25451886  0.41690533  0.07985420     1.78800
O149        O  0.25354154  0.57908910  0.14858562    -0.92900
O150        O  0.24038783  0.36574060  0.03767448    -0.40700
O151        O  0.23883737  0.48116529  0.07428439    -0.77300
O152        O  0.18983126  0.42774341  0.07245337    -0.96000
O153        O  0.13843864  0.46833530  0.12003397    -0.89300
O154        O  0.19246713  0.52740214  0.12232363    -0.92100
C155        C  0.28563688  0.35257080  0.14315566     1.01600
C156        C  0.30415407  0.49255173  0.20931525     1.14500
C157        C  0.17394175  0.35974540  0.20763048     1.05300
O158        O  0.15217668  0.34007380  0.10102343    -0.94300
O159        O  0.11777074  0.40198157  0.06436695    -0.90000
O160        O  0.13372850  0.45375763  0.03186552    -0.83200
C161        C  0.11673709  0.42262889  0.03496403     1.12000
O162        O  0.16411027  0.50308059  0.24107712    -0.96300
Zr163      Zr  0.15849233  0.50236431  0.17345403     1.88900
O164        O  0.11741322  0.52797757  0.08239757    -0.72900
O165        O  0.08908584  0.40239925  0.14361902    -0.52200
O166        O  0.10173213  0.48482833  0.20605673    -0.96900
O167        O  0.16683974  0.56660878  0.19323431    -0.54100
O168        O  0.10659744  0.53221330  0.14437493    -0.73400
C169        C  0.09751857  0.53763417  0.11047483     0.98900
O170        O  0.15985923  0.50597983  0.00416572    -0.62300
O171        O  0.32219271  0.52252940  0.11042765    -0.57100
O172        O  0.20836885  0.54448705  0.04184828    -0.93700
O173        O  0.26310286  0.55001990  0.07251532    -0.92200
O174        O  0.32086741  0.42714780  0.07131786    -0.92500
O175        O  0.26755760  0.42768471  0.01421899    -0.91300
C176        C  0.24100148  0.55838895  0.04609092     1.17800
H177        H  0.30060190  0.44773575  0.13753263     0.33700
H178        H  0.18448387  0.41472556  0.04962714     0.44500
H179        H  0.18780183  0.55351209  0.11881252     0.38100
H180        H  0.15957063  0.42983629  0.19963407     0.34600
H181        H  0.26314743  0.35046183  0.03715592     0.26300
H182        H  0.08139295  0.37618978  0.14044711     0.32300
H183        H  0.08531933  0.47433844  0.18658846     0.38200
H184        H  0.33109843  0.40219116  0.06632450     0.32600
H185        H  0.32921967  0.54744642  0.11974542     0.31500
H186        H  0.27920336  0.58598943  0.15567438     0.33200
H187        H  0.15800769  0.58190520  0.17222867     0.32200
H188        H  0.27364220  0.45443462  0.01252974     0.36200
H189        H  0.15225606  0.53231467  0.00306241     0.28900
H190        H  0.25682666  0.40079469  0.25621636     0.33100
H191        H  0.14848263  0.52390613  0.24974861     0.36000
H192        H  0.33646040  0.50511696  0.12606533     0.28600
H193        H  0.18374995  0.50462084  0.99056440     0.41500
H194        H  0.17689642  0.33003092  0.10737335     0.31500
H195        H  0.22197005  0.35042754  0.05123925     0.39100
H196        H  0.19405114  0.57044009  0.19368291     0.31000
H197        H  0.09021594  0.40604028  0.17091130     0.31100
H198        H  0.22501525  0.43004106  0.26174063     0.31300
Zr199      Zr  0.91992277  0.31699232  0.76094441     2.17500
O200        O  0.91703413  0.25105138  0.74570442    -0.51000
O201        O  0.86361954  0.33051664  0.72656709    -0.74200
O202        O  0.87500379  0.28414367  0.79871463    -0.81000
O203        O  0.99585632  0.32919043  0.69023367    -0.82800
O204        O  0.86294393  0.31556751  0.85228009    -0.78400
O205        O  0.94572111  0.29274251  0.70267783    -0.90000
O206        O  0.85190894  0.39205605  0.72694434    -0.76000
O207        O  0.88647475  0.36795198  0.78625767    -0.85500
O208        O  0.93954952  0.37009835  0.72712787    -0.85200
O209        O  0.93615011  0.31873868  0.82600883    -0.71900
O210        O  0.98562246  0.32057172  0.77154020    -0.84100
Zr211      Zr  0.98959926  0.42862147  0.82697626     2.26400
Zr212      Zr  0.90285861  0.37112112  0.85067804     2.06300
Zr213      Zr  0.00477847  0.37473332  0.73846317     2.10000
Zr214      Zr  0.90695313  0.42109125  0.75279272     1.78800
O215        O  0.06214033  0.34270375  0.72302821    -0.92900
O216        O  0.85449713  0.45732681  0.77518159    -0.40700
O217        O  0.97270401  0.42728688  0.76246762    -0.77300
O218        O  0.92347157  0.42505420  0.81686571    -0.96000
O219        O  0.96821116  0.37615864  0.86093388    -0.89300
O220        O  0.02230170  0.37704179  0.80252902    -0.92100
C221        C  0.84287851  0.35846631  0.71946981     1.01600
C222        C  0.97336976  0.30272767  0.68230421     1.14500
C223        C  0.85839359  0.28776993  0.83010105     1.05300
O224        O  0.83989129  0.39515673  0.85414138    -0.94300
O225        O  0.90504374  0.42494660  0.89266970    -0.90000
O226        O  0.95693450  0.45785855  0.87745352    -0.83200
C227        C  0.92719508  0.45291387  0.89638323     1.12000
O228        O  0.00990656  0.25923964  0.82214200    -0.96300
Zr229      Zr  0.00109787  0.32473471  0.83645704     1.88900
O230        O  0.03002651  0.41573777  0.87981793    -0.72900
O231        O  0.90290097  0.34702125  0.91394632    -0.52200
O232        O  0.98267662  0.28746958  0.88988836    -0.96900
O233        O  0.06707234  0.31083959  0.83066440    -0.54100
O234        O  0.02876408  0.35369368  0.89092644    -0.73400
C235        C  0.03776818  0.38706531  0.89950641     0.98900
O236        O  0.99807231  0.49581856  0.82693649    -0.62300
O237        O  0.00603123  0.41215819  0.68211804    -0.57100
O238        O  0.04512305  0.45400465  0.79667417    -0.93700
O239        O  0.05493248  0.41898495  0.74479721    -0.92200
O240        O  0.91132218  0.43585687  0.68678178    -0.92500
O241        O  0.91389936  0.48770662  0.74398113    -0.91300
C242        C  0.06375704  0.44511447  0.76742069     1.17800
H243        H  0.93396269  0.36750211  0.70098053     0.33700
H244        H  0.91132451  0.44712010  0.82586763     0.44500
H245        H  0.04877047  0.38006698  0.80553776     0.38100
H246        H  0.92922216  0.29607422  0.83847241     0.34600
H247        H  0.84049710  0.46395975  0.75247163     0.26300
H248        H  0.87634672  0.34441862  0.92063448     0.32300
H249        H  0.00631203  0.27969479  0.90145905     0.38200
H250        H  0.88570887  0.43336709  0.67712418     0.32600
H251        H  0.02601556  0.40121560  0.66673649     0.31500
H252        H  0.07067675  0.35425816  0.69954068     0.33200
H253        H  0.08030603  0.33291824  0.84043156     0.32200
H254        H  0.93507014  0.49482780  0.76006424     0.36200
H255        H  0.97272514  0.50631829  0.82639328     0.28900
H256        H  0.89054469  0.24551589  0.74072695     0.33100
H257        H  0.02753415  0.24991816  0.84100176     0.36000
H258        H  0.98287857  0.40565523  0.66877033     0.28600
H259        H  0.00788835  0.50220327  0.85188293     0.41500
H260        H  0.82690336  0.38401528  0.83254395     0.31500
H261        H  0.83835297  0.43917251  0.78809236     0.39100
H262        H  0.07199586  0.31110178  0.80355254     0.31000
H263        H  0.91191424  0.32123151  0.91148031     0.31100
H264        H  0.92276855  0.23793191  0.76916060     0.31300
Zr265      Zr  0.75832473  0.92553232  0.31658146     2.17500
O266        O  0.74568694  0.92839044  0.24994097    -0.51000
O267        O  0.72455832  0.86785109  0.32827456    -0.74200
O268        O  0.79317536  0.88013577  0.28235933    -0.81000
O269        O  0.69118905  0.00492183  0.32649806    -0.82800
O270        O  0.84519598  0.86499617  0.31467681    -0.78400
O271        O  0.70166443  0.95308052  0.29184265    -0.90000
O272        O  0.72146903  0.85655174  0.39010050    -0.76000
O273        O  0.78059653  0.89048717  0.36784213    -0.85500
O274        O  0.72336156  0.94525199  0.36896383    -0.85200
O275        O  0.82389695  0.93892766  0.31995258    -0.71900
O276        O  0.77182868  0.99063453  0.32151673    -0.84100
Zr277      Zr  0.82391500  0.98940951  0.43093913     2.26400
Zr278      Zr  0.84561101  0.90335928  0.37217060     2.06300
Zr279      Zr  0.73748286  0.00968396  0.37508075     2.10000
Zr280      Zr  0.74611754  0.91119339  0.42039580     1.78800
O281        O  0.72537575  0.07034486  0.34825371    -0.92900
O282        O  0.76384157  0.85993962  0.46061438    -0.40700
O283        O  0.75878361  0.97605620  0.42775556    -0.77300
O284        O  0.81090641  0.92399600  0.42572743    -0.96000
O285        O  0.85850831  0.96809729  0.37871728    -0.89300
O286        O  0.80220835  0.02407563  0.37923448    -0.92100
C287        C  0.71613691  0.84711035  0.35616534     1.01600
C288        C  0.68297197  0.98221136  0.30019934     1.14500
C289        C  0.82341718  0.86206178  0.28618795     1.05300
O290        O  0.84825050  0.83918378  0.39284270    -0.94300
O291        O  0.88582409  0.90252142  0.42799575    -0.90000
O292        O  0.87208100  0.95463570  0.46097316    -0.83200
C293        C  0.89008638  0.92442852  0.45624162     1.12000
O294        O  0.82535064  0.01445064  0.26146085    -0.96300
Zr295      Zr  0.83722664  0.00332403  0.32735727     1.88900
O296        O  0.88018202  0.02597134  0.42075283    -0.72900
O297        O  0.90959313  0.90516577  0.35034112    -0.52200
O298        O  0.88929661  0.98232133  0.28947928    -0.96900
O299        O  0.83653826  0.06990235  0.31511806    -0.54100
O300        O  0.89144809  0.02922639  0.35883414    -0.73400
C301        C  0.90071431  0.03509476  0.39286256     0.98900
O302        O  0.81914180  0.99215967  0.49874065    -0.62300
O303        O  0.67981591  0.00910624  0.41062750    -0.57100
O304        O  0.79836506  0.04743553  0.45528350    -0.93700
O305        O  0.74519038  0.05671760  0.42244483    -0.92200
O306        O  0.67941868  0.91512111  0.43095507    -0.92500
O307        O  0.73197636  0.92225399  0.48576270    -0.91300
C308        C  0.76888188  0.06584740  0.44750698     1.17800
H309        H  0.69716421  0.94071694  0.36539921     0.33700
H310        H  0.81876759  0.91108899  0.44781784     0.44500
H311        H  0.80623698  0.05030443  0.38285661     0.38100
H312        H  0.83639190  0.93187990  0.29728573     0.34600
H313        H  0.74083864  0.84513728  0.46377599     0.26300
H314        H  0.91491141  0.87951937  0.34209881     0.32300
H315        H  0.90548977  0.00440191  0.28672741     0.38200
H316        H  0.67176568  0.88965204  0.43789582     0.32600
H317        H  0.66967682  0.03440970  0.40781616     0.31500
H318        H  0.69995545  0.07661682  0.35659093     0.33200
H319        H  0.85881896  0.07449894  0.29961235     0.32200
H320        H  0.75622518  0.92832433  0.49725197     0.36200
H321        H  0.79284994  0.99815780  0.50398317     0.28900
H322        H  0.77019930  0.93129089  0.23776711     0.33100
H323        H  0.84736457  0.02783166  0.25176043     0.36000
H324        H  0.66263541  0.99310912  0.39623006     0.28600
H325        H  0.82141810  0.96618609  0.50727548     0.41500
H326        H  0.82337018  0.82887460  0.38716852     0.31500
H327        H  0.78005982  0.84423278  0.44494589     0.39100
H328        H  0.84251855  0.08200341  0.33913711     0.31000
H329        H  0.90868566  0.91972585  0.32705733     0.31100
H330        H  0.73701438  0.90325841  0.24281851     0.31300
Zr331      Zr  0.07575096  0.81779925  0.73765927     2.17500
O332        O  0.07932074  0.75135701  0.74994728    -0.51000
O333        O  0.13037984  0.83045626  0.77573632    -0.74200
O334        O  0.12355921  0.78734298  0.70246378    -0.81000
O335        O  0.98759521  0.81846517  0.79439417    -0.82800
O336        O  0.13908456  0.82022650  0.65082889    -0.78400
O337        O  0.04304181  0.78900987  0.79000088    -0.90000
O338        O  0.14258129  0.89194672  0.77753499    -0.76000
O339        O  0.11062108  0.86985622  0.71688987    -0.85500
O340        O  0.05357566  0.86874051  0.77301283    -0.85200
O341        O  0.06427070  0.82184963  0.67163138    -0.71900
O342        O  0.01109734  0.82102566  0.72216179    -0.84100
Zr343      Zr  0.01151019  0.93098852  0.67118120     2.26400
Zr344      Zr  0.09924901  0.87531779  0.65152970     2.06300
Zr345      Zr  0.98955762  0.87348610  0.75644472     2.10000
Zr346      Zr  0.08782618  0.92102299  0.75161685     1.78800
O347        O  0.92770604  0.84982525  0.77055011    -0.92900
O348        O  0.14010647  0.96020833  0.73376086    -0.40700
O349        O  0.02307455  0.92718719  0.73689085    -0.77300
O350        O  0.07639988  0.92746765  0.68644962    -0.96000
O351        O  0.03491941  0.87991373  0.63659169    -0.89300
O352        O  0.97687075  0.87843818  0.69129559    -0.92100
C353        C  0.15127725  0.85821014  0.78422722     1.01600
C354        C  0.01031724  0.79293063  0.80377019     1.14500
C355        C  0.14227855  0.79206408  0.67256313     1.05300
O356        O  0.16295958  0.89804334  0.65243954    -0.94300
O357        O  0.10086836  0.93097853  0.61192649    -0.90000
O358        O  0.04682809  0.96143367  0.62294391    -0.83200
C359        C  0.07828413  0.95811529  0.60654895     1.12000
O360        O  0.99437590  0.76047178  0.66305222    -0.96300
Zr361      Zr  0.00018084  0.82752046  0.65664961     1.88900
O362        O  0.97553858  0.91955676  0.61469269    -0.72900
O363        O  0.10226903  0.85394035  0.58727143    -0.52200
O364        O  0.01997819  0.79373083  0.60132041    -0.96900
O365        O  0.93440588  0.81177809  0.66165272    -0.54100
O366        O  0.97383176  0.85792888  0.60273101    -0.73400
C367        C  0.96737071  0.89165153  0.59376711     0.98900
O368        O  0.00824828  0.99864614  0.67440881    -0.62300
O369        O  0.99272932  0.90292725  0.81752988    -0.57100
O370        O  0.95315906  0.95432235  0.69665787    -0.93700
O371        O  0.94202734  0.91975454  0.74845052    -0.92200
O372        O  0.08056795  0.93042528  0.81841796    -0.92500
O373        O  0.07860005  0.98639590  0.76573604    -0.91300
C374        C  0.93380649  0.94549200  0.72539671     1.17800
H375        H  0.05686951  0.86455085  0.79934068     0.33700
H376        H  0.08896018  0.94996886  0.67908916     0.44500
H377        H  0.95072686  0.88147112  0.68649085     0.38100
H378        H  0.07212771  0.79970887  0.65879810     0.34600
H379        H  0.15470662  0.96353011  0.75686489     0.26300
H380        H  0.12911766  0.85327137  0.58140926     0.32300
H381        H  0.02809700  0.81307542  0.58355064     0.38200
H382        H  0.10601503  0.93511549  0.82773169     0.32600
H383        H  0.97135270  0.92005611  0.81830934     0.31500
H384        H  0.92035826  0.86262792  0.79381611     0.33200
H385        H  0.92109877  0.83185003  0.64857451     0.32200
H386        H  0.06335319  0.99571914  0.74488327     0.36200
H387        H  0.00115178  0.00443939  0.70040084     0.28900
H388        H  0.10526139  0.74661024  0.75762037     0.33100
H389        H  0.97514839  0.75283497  0.64488601     0.36000
H390        H  0.98611117  0.88303363  0.83531637     0.28600
H391        H  0.03426678  0.00748201  0.67285053     0.41500
H392        H  0.17411312  0.88664435  0.67480567     0.31500
H393        H  0.15571027  0.94410569  0.71786343     0.39100
H394        H  0.92821335  0.81538271  0.68826547     0.31000
H395        H  0.09471040  0.82754156  0.58831902     0.31100
H396        H  0.07659351  0.73900807  0.72544703     0.31300
Zr397      Zr  0.32171661  0.75972188  0.92282325     2.17500
O398        O  0.25517953  0.74724975  0.92592060    -0.51000
O399        O  0.33342920  0.72234076  0.86785398    -0.74200
O400        O  0.28793926  0.79331185  0.87623830    -0.81000
O401        O  0.33438018  0.69213738  0.00093012    -0.82800
O402        O  0.31763121  0.84729593  0.86271692    -0.78400
O403        O  0.29804118  0.70286714  0.95038886    -0.90000
O404        O  0.39521742  0.72116414  0.85611952    -0.76000
O405        O  0.37237245  0.78289043  0.88710779    -0.85500
O406        O  0.37489874  0.72689069  0.94327282    -0.85200
O407        O  0.32333720  0.82519646  0.93585685    -0.71900
O408        O  0.32538778  0.77337981  0.98799652    -0.84100
Zr409      Zr  0.43376856  0.82926069  0.98755886     2.26400
Zr410      Zr  0.37529728  0.84776089  0.90020914     2.06300
Zr411      Zr  0.37961835  0.74148779  0.00789994     2.10000
Zr412      Zr  0.42561729  0.75070979  0.90873685     1.78800
O413        O  0.34715770  0.73222227  0.06659649    -0.92900
O414        O  0.46131486  0.77074338  0.85464952    -0.40700
O415        O  0.43223059  0.76397041  0.97403234    -0.77300
O416        O  0.42937961  0.81523323  0.92199313    -0.96000
O417        O  0.38083674  0.86154552  0.96523849    -0.89300
O418        O  0.38258098  0.80631430  0.02240364    -0.92100
C419        C  0.36145118  0.71364777  0.84758059     1.01600
C420        C  0.30783560  0.68364221  0.97868000     1.14500
C421        C  0.29025483  0.82425418  0.85902287     1.05300
O422        O  0.39569486  0.84494668  0.83565054    -0.94300
O423        O  0.43061870  0.88768678  0.89830563    -0.90000
O424        O  0.46369092  0.87683626  0.95124381    -0.83200
C425        C  0.45862271  0.89305107  0.91997097     1.12000
O426        O  0.26351354  0.82859659  0.00973678    -0.96300
Zr427      Zr  0.32980922  0.83868650  0.00034253     1.88900
O428        O  0.42047484  0.88434398  0.02497492    -0.72900
O429        O  0.35711439  0.91263142  0.89640524    -0.52200
O430        O  0.29516387  0.89248469  0.97894046    -0.96900
O431        O  0.31436367  0.83313729  0.06618688    -0.54100
O432        O  0.35835126  0.89282072  0.02809055    -0.73400
C433        C  0.39175630  0.90339444  0.03417650     0.98900
O434        O  0.50087683  0.83779485  0.99245615    -0.62300
O435        O  0.41518230  0.68464466  0.01474882    -0.57100
O436        O  0.46063238  0.80005453  0.04311074    -0.93700
O437        O  0.42541677  0.74912839  0.05594722    -0.92200
O438        O  0.44161219  0.68560369  0.91598946    -0.92500
O439        O  0.49242636  0.74265980  0.91507848    -0.91300
C440        C  0.45213060  0.77157785  0.06294920     1.17800
H441        H  0.37235146  0.70057164  0.93888754     0.33700
H442        H  0.45146540  0.82311617  0.90900105     0.44500
H443        H  0.38601298  0.81060417  0.04872305     0.38100
H444        H  0.30046533  0.83702941  0.92879710     0.34600
H445        H  0.46575861  0.74779612  0.84014934     0.32300
H446        H  0.36140586  0.91950756  0.87008427     0.32300
H447        H  0.29019885  0.90726842  0.00165050     0.38200
H448        H  0.45005401  0.67768061  0.89098203     0.32600
H449        H  0.40098419  0.66968210  0.03297848     0.31500
H450        H  0.35973112  0.71081379  0.07820225     0.33200
H451        H  0.33646146  0.84223465  0.07983258     0.32200
H452        H  0.49703742  0.74288428  0.94223450     0.36200
H453        H  0.50525943  0.84951209  0.01702836     0.28900
H454        H  0.24766494  0.73975846  0.90048569     0.33100
H455        H  0.25499225  0.84961153  0.02528968     0.36000
H456        H  0.41195759  0.67133711  0.99083893     0.28600
H457        H  0.51147581  0.81258870  0.99442336     0.41500
H458        H  0.40065085  0.87104469  0.82868079     0.31500
H459        H  0.44351913  0.78497572  0.83941254     0.39100
H460        H  0.31378406  0.80610202  0.07089346     0.31000
H461        H  0.32978595  0.91247491  0.89926395     0.31100
H462        H  0.24343898  0.77169298  0.93007125     0.31300
Zr463      Zr  0.25854849  0.57736404  0.67905312     2.17500
O464        O  0.24030347  0.58411492  0.74417183    -0.51000
O465        O  0.22258961  0.63293379  0.66712458    -0.74200
O466        O  0.29644420  0.62129062  0.71306175    -0.81000
O467        O  0.19767319  0.49169610  0.67298918    -0.82800
O468        O  0.35033794  0.63350443  0.68236799    -0.78400
O469        O  0.20546144  0.54465641  0.70659837    -0.90000
O470        O  0.22422014  0.64612979  0.60568941    -0.76000
O471        O  0.28420095  0.61189314  0.62877038    -0.85500
O472        O  0.22453133  0.55898508  0.62538119    -0.85200
O473        O  0.32346773  0.56096235  0.67734317    -0.71900
O474        O  0.26859422  0.51184632  0.67395974    -0.84100
Zr475      Zr  0.32667384  0.51091870  0.56669909     2.26400
Zr476      Zr  0.34857337  0.59568066  0.62552255     2.06300
Zr477      Zr  0.23663306  0.49420195  0.61865775     2.10000
Zr478      Zr  0.25082322  0.59260449  0.57506516     1.78800
O479        O  0.22811570  0.42948327  0.63594453    -0.92900
O480        O  0.27301673  0.64623616  0.54024012    -0.40700
O481        O  0.26214747  0.52762089  0.56746875    -0.77300
O482        O  0.31486950  0.57667066  0.57080410    -0.96000
O483        O  0.35909462  0.53035457  0.62081100    -0.89300
O484        O  0.30045020  0.47621584  0.61641973    -0.92100
C485        C  0.21598266  0.65425726  0.63939881     1.01600
C486        C  0.18983061  0.51310801  0.70033646     1.14500
C487        C  0.32790871  0.63768682  0.70997832     1.05300
O488        O  0.35304501  0.66045542  0.60699700    -0.94300
O489        O  0.38896109  0.59827488  0.56996330    -0.90000
O490        O  0.37346830  0.54758554  0.53560795    -0.83200
C491        C  0.39222425  0.57739811  0.54090882     1.12000
O492        O  0.31388438  0.48437956  0.73494818    -0.96300
Zr493      Zr  0.33279904  0.49572106  0.67075979     1.88900
O494        O  0.38244888  0.47525685  0.58202948    -0.72900
O495        O  0.41259039  0.59264546  0.64694810    -0.52200
O496        O  0.38348528  0.51159462  0.71290633    -0.96900
O497        O  0.32676468  0.42903878  0.68132904    -0.54100
O498        O  0.38727282  0.46722737  0.64434629    -0.73400
C499        C  0.39971681  0.46385179  0.61118347     0.98900
O500        O  0.33461002  0.49360918  0.50145765    -0.62300
O501        O  0.17312020  0.49769985  0.59575038    -0.57100
O502        O  0.29360230  0.45962888  0.53644003    -0.93700
O503        O  0.23628017  0.45734311  0.56282026    -0.92200
O504        O  0.18543327  0.58675394  0.55857758    -0.92500
O505        O  0.24205238  0.58707754  0.50810804    -0.91300
C506        C  0.26015779  0.44713944  0.53849339     1.17800
H507        H  0.19836196  0.56390639  0.62843990     0.33700
H508        H  0.32314572  0.58979202  0.54895583     0.44500
H509        H  0.30285971  0.44992917  0.61188830     0.38100
H510        H  0.33583454  0.56729163  0.70029681     0.34600
H511        H  0.25063564  0.66142835  0.53580504     0.26300
H512        H  0.41803441  0.61757604  0.65723160     0.32300
H513        H  0.40627631  0.51105439  0.69751057     0.38200
H514        H  0.17217463  0.60405926  0.57532874     0.32600
H515        H  0.17556999  0.50617123  0.56967650     0.31500
H516        H  0.20152525  0.42425766  0.63125867     0.33200
H517        H  0.34735072  0.42290584  0.69844088     0.32200
H518        H  0.26618472  0.57798490  0.49862507     0.36200
H519        H  0.33117014  0.51670962  0.48704563     0.28900
H520        H  0.23518694  0.61084255  0.74785506     0.33100
H521        H  0.33423496  0.47004643  0.74641661     0.36000
H522        H  0.16474706  0.47158759  0.59371112     0.28600
H523        H  0.36117980  0.48730988  0.49852638     0.41500
H524        H  0.33009253  0.67205594  0.61663480     0.31500
H525        H  0.28775718  0.66076802  0.55841302     0.39100
H526        H  0.33386494  0.41694674  0.65762808     0.31000
H527        H  0.41166409  0.57623053  0.66896340     0.31100
H528        H  0.26288172  0.57911605  0.75898836     0.31300
Zr529      Zr  0.51145838  0.57035753  0.32603046     2.17500
O530        O  0.49802532  0.50397927  0.32500465    -0.51000
O531        O  0.47590091  0.58431163  0.38211308    -0.74200
O532        O  0.54550626  0.53765517  0.37287298    -0.81000
O533        O  0.44187070  0.58222709  0.24959585    -0.82800
O534        O  0.59953093  0.56780702  0.38566466    -0.78400
O535        O  0.45393962  0.54608221  0.29988783    -0.90000
O536        O  0.47620598  0.64585959  0.39422044    -0.76000
O537        O  0.53640596  0.62110552  0.36047892    -0.85500
O538        O  0.47825171  0.62313371  0.30546396    -0.85200
O539        O  0.57669956  0.57129330  0.31105770    -0.71900
O540        O  0.52346681  0.57267077  0.26040508    -0.84100
Zr541      Zr  0.57937201  0.68011223  0.25836095     2.26400
Zr542      Zr  0.60113474  0.62339761  0.34541566     2.06300
Zr543      Zr  0.49134695  0.62663143  0.24032248     2.10000
Zr544      Zr  0.50332229  0.67392170  0.33918672     1.78800
O545        O  0.48622765  0.59414910  0.18103074    -0.92900
O546        O  0.52415188  0.71269875  0.39075636    -0.40700
O547        O  0.51467133  0.67908530  0.27359714    -0.77300
O548        O  0.56770933  0.67730200  0.32443457    -0.96000
O549        O  0.61277192  0.62758465  0.27991245    -0.89300
O550        O  0.55558101  0.62909080  0.22404713    -0.92100
C551        C  0.46847362  0.61231054  0.40305542     1.01600
C552        C  0.43380733  0.55597372  0.27223141     1.14500
C553        C  0.57629124  0.54079864  0.39030155     1.05300
O554        O  0.60801183  0.64467171  0.40939725    -0.94300
O555        O  0.64174644  0.67882984  0.34520050    -0.90000
O556        O  0.62801285  0.71055706  0.29248915    -0.83200
C557        C  0.64597312  0.70654016  0.32287136     1.12000
O558        O  0.57514315  0.51039959  0.23768398    -0.96300
Zr559      Zr  0.58845607  0.57636063  0.24579634     1.88900
O560        O  0.63336347  0.66634887  0.22056112    -0.72900
O561        O  0.66377233  0.59820342  0.34590214    -0.52200
O562        O  0.64108497  0.53817645  0.26387609    -0.96900
O563        O  0.58139024  0.56277798  0.17951047    -0.54100
O564        O  0.64334315  0.60453175  0.21842591    -0.73400
C565        C  0.65327258  0.63811871  0.21217088     0.98900
O566        O  0.58260804  0.74662712  0.24623879    -0.62300
O567        O  0.43297375  0.65873558  0.22982592    -0.57100
O568        O  0.55011004  0.70793013  0.20381389    -0.93700
O569        O  0.49529681  0.67724183  0.19685911    -0.92200
O570        O  0.43752921  0.68810538  0.33356818    -0.92500
O571        O  0.49492372  0.74029900  0.33064019    -0.91300
C572        C  0.51848066  0.70279981  0.18806154     1.17800
H573        H  0.45201227  0.62069881  0.31045592     0.33700
H574        H  0.57619523  0.69951309  0.33683664     0.44500
H575        H  0.55890871  0.63292369  0.19768066     0.38100
H576        H  0.58845780  0.54853741  0.31859641     0.34600
H577        H  0.50204477  0.71555513  0.40689440     0.26300
H578        H  0.67339694  0.60240265  0.32043985     0.32300
H579        H  0.65579001  0.53491277  0.24080815     0.38200
H580        H  0.43005290  0.69655831  0.35870901     0.32600
H581        H  0.42083731  0.64488652  0.20932066     0.31500
H582        H  0.48696461  0.56750206  0.18754626     0.33200
H583        H  0.60209577  0.54585045  0.17343765     0.32200
H584        H  0.51804692  0.74872345  0.31829228     0.36200
H585        H  0.57948940  0.75880158  0.27077092     0.28900
H586        H  0.48982805  0.49762431  0.35053023     0.33100
H587        H  0.59505410  0.50044795  0.22154390     0.36000
H588        H  0.41765714  0.65331526  0.25205758     0.28600
H589        H  0.60858535  0.75189359  0.23882373     0.41500
H590        H  0.58487149  0.63670174  0.42199427     0.31500
H591        H  0.54108139  0.69665597  0.40515265     0.39100
H592        H  0.58797418  0.58595911  0.16634444     0.31000
H593        H  0.67825046  0.61544247  0.36179018     0.31100
H594        H  0.52235752  0.49167631  0.32192717     0.31300
Zr595      Zr  0.67873054  0.25979367  0.57766390     2.17500
O596        O  0.74557283  0.24929935  0.57808382    -0.51000
O597        O  0.66758335  0.21969890  0.63086439    -0.74200
O598        O  0.70949582  0.29410827  0.62657456    -0.81000
O599        O  0.67611247  0.20287629  0.48993398    -0.82800
O600        O  0.67680065  0.34575969  0.64193676    -0.78400
O601        O  0.70729129  0.20773335  0.54462578    -0.90000
O602        O  0.60633759  0.22036244  0.64455643    -0.76000
O603        O  0.62690771  0.28022857  0.61330713    -0.85500
O604        O  0.62719070  0.22505453  0.55511794    -0.85200
O605        O  0.67447864  0.32558768  0.56702003    -0.71900
O606        O  0.67499904  0.27609663  0.51312808    -0.84100
Zr607      Zr  0.56469164  0.32720712  0.51448290     2.26400
Zr608      Zr  0.62124502  0.34538706  0.60243158     2.06300
Zr609      Zr  0.62218864  0.24247738  0.49126428     2.10000
Zr610      Zr  0.57539947  0.24598773  0.59023945     1.78800
O611        O  0.64583937  0.23377350  0.42831288    -0.92900
O612        O  0.53606407  0.26255706  0.64284480    -0.40700
O613        O  0.56872764  0.26152116  0.52545423    -0.77300
O614        O  0.56879893  0.31091855  0.57938627    -0.96000
O615        O  0.61610022  0.36146970  0.53817958    -0.89300
O616        O  0.61700444  0.30745516  0.47959233    -0.92100
C617        C  0.64008365  0.21234599  0.65245072     1.01600
C618        C  0.70231435  0.19357425  0.51211515     1.14500
C619        C  0.70495154  0.32410687  0.64521736     1.05300
O620        O  0.60056129  0.34604001  0.66700822    -0.94300
O621        O  0.56444616  0.38296064  0.60498592    -0.90000
O622        O  0.53401349  0.37493670  0.54991464    -0.83200
C623        C  0.53749787  0.38939487  0.58234285     1.12000
O624        O  0.73495884  0.33661991  0.49259252    -0.96300
Zr625      Zr  0.66828975  0.34143973  0.50305651     1.88900
O626        O  0.57571806  0.38312353  0.47752655    -0.72900
O627        O  0.64252153  0.40951638  0.60463539    -0.52200
O628        O  0.70169749  0.39541705  0.52685181    -0.96900
O629        O  0.68338911  0.33670472  0.43697698    -0.54100
O630        O  0.63759619  0.39407762  0.47540424    -0.73400
C631        C  0.60399398  0.40322967  0.46861643     0.98900
O632        O  0.49699962  0.32646090  0.51321077    -0.62300
O633        O  0.59264109  0.18162835  0.49063119    -0.57100
O634        O  0.54078303  0.30188623  0.45592627    -0.93700
O635        O  0.57536486  0.25047642  0.44422643    -0.92200
O636        O  0.56392159  0.17954763  0.58507706    -0.92500
O637        O  0.50978637  0.23292390  0.58019520    -0.91300
C638        C  0.54967931  0.27352894  0.43613526     1.17800
H639        H  0.63105060  0.19871640  0.55794571     0.33700
H640        H  0.54629293  0.31782226  0.59216445     0.44500
H641        H  0.61377222  0.31251052  0.45342434     0.38100
H642        H  0.69675754  0.33819269  0.57503644     0.34600
H643        H  0.53079915  0.23873580  0.65549070     0.26300
H644        H  0.64271562  0.41588834  0.63145284     0.32300
H645        H  0.70629337  0.41120463  0.50480653     0.38200
H646        H  0.55684303  0.17177285  0.61054017     0.32600
H647        H  0.56655141  0.18641889  0.49778695     0.31500
H648        H  0.64043163  0.20751399  0.42218877     0.33200
H649        H  0.66230027  0.34801068  0.42358316     0.32200
H650        H  0.49923952  0.25687498  0.57204361     0.36200
H651        H  0.48998757  0.34152128  0.49133869     0.28900
H652        H  0.75186600  0.24207093  0.60387706     0.33100
H653        H  0.74138316  0.35683742  0.47509827     0.36000
H654        H  0.59138482  0.17468454  0.46399049     0.28600
H655        H  0.48987509  0.30071191  0.50664230     0.41500
H656        H  0.57339867  0.34194936  0.66587402     0.31500
H657        H  0.55278778  0.27597060  0.66012421     0.39100
H658        H  0.68157849  0.30989400  0.43121266     0.31000
H659        H  0.66906559  0.40840915  0.59758504     0.31100
H660        H  0.75699336  0.27408583  0.57463533     0.31300
Zr661      Zr  0.67334024  0.00594417  0.92974739     2.17500
O662        O  0.67516945  0.99398819  0.99649117    -0.51000
O663        O  0.61695272  0.97136165  0.91625992    -0.74200
O664        O  0.62635189  0.04025714  0.96224019    -0.81000
O665        O  0.75023024  0.93681015  0.91944835    -0.82800
O666        O  0.61334046  0.09344276  0.93138587    -0.78400
O667        O  0.69748875  0.94742707  0.95260459    -0.90000
O668        O  0.60726541  0.97056247  0.85391642    -0.76000
O669        O  0.64004032  0.02978218  0.87794187    -0.85500
O670        O  0.69517549  0.97225678  0.87734062    -0.85200
O671        O  0.68772474  0.07114842  0.92872180    -0.71900
O672        O  0.73875399  0.01830931  0.92845430    -0.84100
Zr673      Zr  0.74211811  0.07364880  0.82031333     2.26400
Zr674      Zr  0.65427630  0.09462651  0.87579042     2.06300
Zr675      Zr  0.75998718  0.98587212  0.87474617     2.10000
Zr676      Zr  0.66263823  0.99612766  0.82563370     1.78800
O677        O  0.81942763  0.98706869  0.90690185    -0.92900
O678        O  0.61355852  0.01573750  0.78356726    -0.40700
O679        O  0.72778606  0.00865607  0.82157764    -0.77300
O680        O  0.67638823  0.06066659  0.82213153    -0.96000
O681        O  0.71952220  0.10719896  0.87260842    -0.89300
O682        O  0.77584619  0.05027764  0.87192642    -0.92100
C683        C  0.59719827  0.96390590  0.88744299     1.01600
C684        C  0.72605442  0.92803913  0.94411474     1.14500
C685        C  0.60882161  0.07084484  0.95894855     1.05300
O686        O  0.58999439  0.10285737  0.85688342    -0.94300
O687        O  0.65313333  0.13356298  0.81914550    -0.90000
O688        O  0.70635609  0.12018116  0.78806062    -0.83200
C689        C  0.67555930  0.13757957  0.79131012     1.12000
O690        O  0.76723501  0.06966575  0.98913545    -0.96300
Zr691      Zr  0.75278070  0.08338972  0.92440739     1.88900
O692        O  0.78009618  0.12761710  0.83549756    -0.72900
O693        O  0.65907956  0.15770286  0.89959791    -0.52200
O694        O  0.73184776  0.13168971  0.96696166    -0.96900
O695        O  0.81955092  0.08304325  0.93591543    -0.54100
O696        O  0.77652441  0.14004570  0.89709942    -0.73400
C697        C  0.78554622  0.14882270  0.86378587     0.98900
O698        O  0.75948322  0.07926994  0.75491264    -0.62300
O699        O  0.77483025  0.92537115  0.84824395    -0.57100
O700        O  0.79465528  0.04179679  0.79161359    -0.93700
O701        O  0.79889805  0.98595360  0.82037868    -0.92200
O702        O  0.66745124  0.92960274  0.81453493    -0.92500
O703        O  0.67331777  0.98356673  0.75986095    -0.91300
C704        C  0.80836224  0.00915564  0.79516001     1.17800
H705        H  0.69030166  0.94603061  0.87978852     0.33700
H706        H  0.66417099  0.06831748  0.79959665     0.44500
H707        H  0.80219570  0.05378309  0.86841150     0.38100
H708        H  0.67979180  0.08305905  0.95140937     0.34600
H709        H  0.59797760  0.99334806  0.77983875     0.26300
H710        H  0.63413646  0.16835749  0.89553828     0.32300
H711        H  0.75371234  0.14808419  0.97033475     0.38200
H712        H  0.64350746  0.92253672  0.80296346     0.32600
H713        H  0.79303077  0.91418727  0.86547299     0.31500
H714        H  0.81343235  0.99544204  0.93246473     0.33200
H715        H  0.82370885  0.10353468  0.95385432     0.32200
H716        H  0.69241857  0.00187813  0.75226509     0.36200
H717        H  0.73633851  0.07507523  0.74064499     0.28900
H718        H  0.65011732  0.98469273  0.00308212     0.33100
H719        H  0.74790574  0.05172405  0.99701976     0.36000
H720        H  0.75199581  0.91026919  0.85117047     0.28600
H721        H  0.76583552  0.10572081  0.75104932     0.41500
H722        H  0.58267077  0.07870883  0.84594361     0.31500
H723        H  0.59792760  0.03254231  0.79864780     0.39100
H724        H  0.83124198  0.09200542  0.91265749     0.31000
H725        H  0.66094763  0.15483502  0.92692507     0.31100
H726        H  0.67709165  0.01867517  0.00848278     0.31300
Zr727      Zr  0.93077079  0.67150659  0.00836105     2.17500
O728        O  0.99759271  0.67634255  0.99843675    -0.51000
O729        O  0.92084628  0.61384064  0.97428445    -0.74200
O730        O  0.96390791  0.62576185  0.04392682    -0.81000
O731        O  0.91629814  0.74537984  0.93598097    -0.82800
O732        O  0.93329766  0.61628849  0.09864528    -0.78400
O733        O  0.95472697  0.69762548  0.95045546    -0.90000
O734        O  0.85957126  0.59990948  0.97542136    -0.76000
O735        O  0.88082610  0.63637790  0.03392068    -0.85500
O736        O  0.87735514  0.68833539  0.97357121    -0.85200
O737        O  0.92801417  0.68896070  0.07312125    -0.71900
O738        O  0.92489847  0.73702410  0.01812563    -0.84100
Zr739      Zr  0.81678797  0.73681719  0.07343438     2.26400
Zr740      Zr  0.87666870  0.65390936  0.09796943     2.06300
Zr741      Zr  0.87042351  0.75335853  0.98453281     2.10000
Zr742      Zr  0.82756798  0.65372321  0.99943710     1.78800
O743        O  0.90098282  0.81355355  0.97948502    -0.92900
O744        O  0.79324221  0.60051794  0.02338842    -0.40700
O745        O  0.81931784  0.71896983  0.00908563    -0.77300
O746        O  0.82227827  0.67101642  0.06318792    -0.96000
O747        O  0.86995112  0.71905251  0.10789569    -0.89300
O748        O  0.86648583  0.77224168  0.04829135    -0.92100
C749        C  0.89336693  0.59182470  0.96808168     1.01600
C750        C  0.94410119  0.72424398  0.92934621     1.14500
C751        C  0.96046977  0.61067907  0.07597876     1.05300
O752        O  0.85974769  0.58948476  0.10941281    -0.94300
O753        O  0.82103554  0.65081320  0.13732132    -0.90000
O754        O  0.78775141  0.70225552  0.12302514    -0.83200
C755        C  0.79273911  0.67218178  0.14125114     1.12000
O756        O  0.98511049  0.76702083  0.06999202    -0.96300
Zr757      Zr  0.91984264  0.75414827  0.08254553     1.88900
O758        O  0.82885949  0.77740612  0.12666455    -0.72900
O759        O  0.89838209  0.66311478  0.16141651    -0.52200
O760        O  0.96089679  0.74126841  0.13472116    -0.96900
O761        O  0.92796682  0.82062538  0.07237654    -0.54100
O762        O  0.89063190  0.78103757  0.13732195    -0.73400
C763        C  0.85684397  0.78721136  0.14668795     0.98900
O764        O  0.74981452  0.74640480  0.07527230    -0.62300
O765        O  0.83870418  0.76087444  0.92523703    -0.57100
O766        O  0.78694360  0.78785689  0.04090460    -0.93700
O767        O  0.81606510  0.79203546  0.98491006    -0.92200
O768        O  0.81314819  0.65606501  0.93323657    -0.92500
O769        O  0.76074769  0.65451038  0.98932161    -0.91300
C770        C  0.79060908  0.80126830  0.00801608     1.17800
H771        H  0.88028093  0.68261884  0.94746932     0.33700
H772        H  0.80044176  0.65799353  0.07167895     0.44500
H773        H  0.86162734  0.79845016  0.05054869     0.38100
H774        H  0.95087796  0.68273476  0.08553942     0.34600
H775        H  0.79147600  0.58304123  0.00215847     0.26300
H776        H  0.89836043  0.63794932  0.17236550     0.32300
H777        H  0.96604789  0.76581586  0.14605332     0.38200
H778        H  0.80326896  0.63107869  0.92726922     0.32600
H779        H  0.85266201  0.78065141  0.91215833     0.31500
H780        H  0.88180267  0.83180305  0.98666401     0.33200
H781        H  0.94996183  0.82767851  0.08732689     0.32200
H782        H  0.75044850  0.66582418  0.01222840     0.36200
H783        H  0.73858511  0.72130151  0.07439720     0.28900
H784        H  0.00581772  0.65117464  0.99117730     0.33100
H785        H  0.99432636  0.74434923  0.05750719     0.36000
H786        H  0.84416727  0.73794283  0.91109480     0.28600
H787        H  0.74436814  0.75585129  0.10058992     0.41500
H788        H  0.86829739  0.57590086  0.08703412     0.31500
H789        H  0.81058893  0.58851344  0.04092392     0.39100
H790        H  0.90698370  0.83254914  0.08550632     0.31000
H791        H  0.92496957  0.66964523  0.15878284     0.31100
H792        H  0.00833522  0.68058060  0.02344597     0.31300
C793        C  0.73680082  0.86052309  0.94206175     0.23900
C794        C  0.73226593  0.89286210  0.96331317    -0.24200
C795        C  0.74051506  0.89246668  0.00144527     0.18800
C796        C  0.75687843  0.86110770  0.01734605     0.23800
C797        C  0.76473334  0.82995262  0.99512568    -0.24200
C798        C  0.75273416  0.82919955  0.95789322     0.18700
F799        F  0.75866863  0.79889064  0.93618636    -0.14100
F800        F  0.72793485  0.86011911  0.90532820    -0.16500
F801        F  0.76858152  0.86270287  0.05319761    -0.16500
F802        F  0.73629116  0.92363748  0.02224639    -0.14100
C803        C  0.61977966  0.18341136  0.71381950     0.23900
C804        C  0.64832112  0.19480026  0.68922644    -0.24200
C805        C  0.68538775  0.19032111  0.70077304     0.18800
C806        C  0.69369001  0.17421894  0.73494515     0.23800
C807        C  0.66542132  0.16138087  0.75892958    -0.24200
C808        C  0.62825360  0.16687361  0.74822708     0.18700
F809        F  0.60003496  0.15434451  0.76993512    -0.14100
F810        F  0.58355491  0.18701577  0.70419711    -0.16500
F811        F  0.72999473  0.17022065  0.74389310    -0.16500
F812        F  0.71422860  0.20078253  0.67876671    -0.14100
C813        C  0.62127689  0.49565598  0.41897182     0.23900
C814        C  0.58504183  0.50936166  0.41544601    -0.24200
C815        C  0.55562642  0.48890767  0.43130870     0.18800
C816        C  0.56164520  0.45461117  0.44799364     0.23800
C817        C  0.59765179  0.43986073  0.45033513    -0.24200
C818        C  0.62757939  0.46134897  0.43626546     0.18700
F819        F  0.66301245  0.44885916  0.43813791    -0.14100
F820        F  0.65042426  0.51437483  0.40396777    -0.16500
F821        F  0.53178492  0.43588115  0.46152214    -0.16500
F822        F  0.52040796  0.50176772  0.42993431    -0.14100
C823        C  0.71339641  0.61659629  0.18222692     0.23900
C824        C  0.69076654  0.64541189  0.19614133    -0.24200
C825        C  0.70521330  0.68179947  0.19635604     0.18800
C826        C  0.74032156  0.68938140  0.18225508     0.23800
C827        C  0.76168636  0.66130130  0.16586693    -0.24200
C828        C  0.74847644  0.62455809  0.16698336     0.18700
F829        F  0.76830451  0.59674520  0.15115181    -0.14100
F830        F  0.70112682  0.58095238  0.18184268    -0.16500
F831        F  0.75279087  0.72492952  0.18309798    -0.16500
F832        F  0.68508598  0.71075867  0.20922190    -0.14100
C833        C  0.45056789  0.42042978  0.63163598     0.23900
C834        C  0.43699215  0.44703018  0.60640045    -0.24200
C835        C  0.45991115  0.45822336  0.57674290     0.18800
C836        C  0.49403009  0.44113089  0.57046679     0.23800
C837        C  0.50652139  0.41309812  0.59427562    -0.24200
C838        C  0.48492827  0.40333323  0.62536492     0.18700
F839        F  0.49564102  0.37516600  0.64788146    -0.14100
F840        F  0.42990002  0.40964800  0.66135583    -0.16500
F841        F  0.51445465  0.45112202  0.54030551    -0.16500
F842        F  0.44943148  0.48601941  0.55387719    -0.14100
C843        C  0.44803269  0.56804044  0.45281836     0.23900
C844        C  0.45107091  0.60481449  0.44013382    -0.24200
C845        C  0.43808257  0.63352910  0.46371352     0.18800
C846        C  0.42113695  0.62518755  0.49809905     0.23800
C847        C  0.41706956  0.58811738  0.50963354    -0.24200
C848        C  0.43180557  0.55996295  0.48693643     0.18700
F849        F  0.42911851  0.52383925  0.49691980    -0.14100
F850        F  0.45973094  0.53912401  0.43179164    -0.16500
F851        F  0.40674021  0.65314117  0.51888819    -0.16500
F852        F  0.44038730  0.66956047  0.45307195    -0.14100
C853        C  0.51032029  0.75103615  0.09488186     0.23900
C854        C  0.47335403  0.76329822  0.09688143    -0.24200
C855        C  0.45386879  0.76001766  0.13055042     0.18800
C856        C  0.47001651  0.74256574  0.16097408     0.23800
C857        C  0.50610564  0.72818502  0.15851693    -0.24200
C858        C  0.52679647  0.73372980  0.12574686     0.18700
F859        F  0.56140852  0.71936855  0.12242861    -0.14100
F860        F  0.52904532  0.75253339  0.06211400    -0.16500
F861        F  0.44947867  0.73760769  0.19232154    -0.16500
F862        F  0.41808321  0.77144757  0.13312001    -0.14100
C863        C  0.50569940  0.94125783  0.93347077     0.23900
C864        C  0.48932426  0.91698083  0.90773812    -0.24200
C865        C  0.50733070  0.91001795  0.87376887     0.18800
C866        C  0.54229483  0.92563950  0.86662768     0.23800
C867        C  0.55974781  0.94816377  0.89360816    -0.24200
C868        C  0.54050833  0.95659856  0.92660716     0.18700
F869        F  0.55529180  0.97984554  0.95237319    -0.14100
F870        F  0.48826574  0.94936532  0.96588241    -0.16500
F871        F  0.55975480  0.91722056  0.83420902    -0.16500
F872        F  0.49236693  0.88597017  0.84875873    -0.14100
C873        C  0.31884983  0.69857867  0.79454651     0.23900
C874        C  0.35395319  0.69511486  0.81135750    -0.24200
C875        C  0.38169064  0.67486329  0.79252463     0.18800
C876        C  0.37422247  0.65824778  0.75795870     0.23800
C877        C  0.33878423  0.66107954  0.74195489    -0.24200
C878        C  0.31146701  0.68186691  0.76037211     0.18700
F879        F  0.27713621  0.68560208  0.74542392    -0.14100
F880        F  0.29130229  0.71810312  0.81111250    -0.16500
F881        F  0.40090714  0.63755180  0.74129695    -0.16500
F882        F  0.41548662  0.66962931  0.80827075    -0.14100
C883        C  0.01861729  0.75890124  0.86417775     0.23900
C884        C  0.99699084  0.76698107  0.83265201    -0.24200
C885        C  0.96006960  0.75421927  0.83117307     0.18800
C886        C  0.94412368  0.73655111  0.86174902     0.23800
C887        C  0.96447611  0.73193254  0.89463967    -0.24200
C888        C  0.00239832  0.74133079  0.89509211     0.18700
F889        F  0.02276104  0.73651527  0.92645436    -0.14100
F890        F  0.05422558  0.77114994  0.86644871    -0.16500
F891        F  0.90801896  0.72566680  0.86003232    -0.16500
F892        F  0.93875310  0.76066726  0.80074320    -0.14100
C893        C  0.86672284  0.94402153  0.73868174     0.23900
C894        C  0.89905353  0.96513629  0.73325814    -0.24200
C895        C  0.89919922  0.00294886  0.74279805     0.18800
C896        C  0.86829238  0.01859090  0.76064915     0.23800
C897        C  0.83718108  0.99640686  0.76901888    -0.24200
C898        C  0.83609661  0.95944660  0.75646634     0.18700
F899        F  0.80605694  0.93758913  0.76333370    -0.14100
F900        F  0.86575138  0.90763084  0.72882890    -0.16500
F901        F  0.87020227  0.05418072  0.77291682    -0.16500
F902        F  0.93037255  0.02368511  0.73806443    -0.14100
C903        C  0.16885006  0.74783060  0.62571712     0.23900
C904        C  0.16686175  0.76097309  0.66247749    -0.24200
C905        C  0.18258003  0.73972925  0.69111390     0.18800
C906        C  0.19749334  0.70493519  0.68376273     0.23800
C907        C  0.19903175  0.69109196  0.64707413    -0.24200
C908        C  0.18527872  0.71348131  0.61797780     0.18700
F909        F  0.18603326  0.70152541  0.58213844    -0.14100
F910        F  0.15253911  0.76684274  0.59762693    -0.16500
F911        F  0.20956481  0.68461620  0.71303523    -0.16500
F912        F  0.18208505  0.75205823  0.72684082    -0.14100
C913        C  0.19928790  0.81338576  0.80715539     0.23900
C914        C  0.18805824  0.85033622  0.80176440    -0.24200
C915        C  0.21284904  0.87902161  0.81247148     0.18800
C916        C  0.24712419  0.87077573  0.82919694     0.23800
C917        C  0.25743001  0.83376956  0.83572220    -0.24200
C918        C  0.23308402  0.80530537  0.82393734     0.18700
F919        F  0.24127635  0.76907092  0.82949817    -0.14100
F920        F  0.17736891  0.78443535  0.79681379    -0.16500
F921        F  0.26925061  0.89911460  0.84072269    -0.16500
F922        F  0.20382520  0.91518466  0.80758651    -0.14100
C923        C  0.69813669  0.79629158  0.31179545     0.23900
C924        C  0.70064607  0.80941853  0.34858934    -0.24200
C925        C  0.68922898  0.78554558  0.37772513     0.18800
C926        C  0.67360193  0.75064118  0.36984971     0.23800
C927        C  0.67037656  0.73827505  0.33288620    -0.24200
C928        C  0.68437382  0.76099936  0.30427791     0.18700
F929        F  0.68304148  0.74985447  0.26831006    -0.14100
F930        F  0.70774640  0.81792416  0.28248296    -0.16500
F931        F  0.65933635  0.73021499  0.39818281    -0.16500
F932        F  0.69172230  0.79632848  0.41385587    -0.14100
C933        C  0.81275386  0.80655665  0.19751701     0.23900
C934        C  0.84929315  0.80528468  0.18352363    -0.24200
C935        C  0.87812039  0.82010647  0.20593289     0.18800
C936        C  0.87027562  0.83645687  0.24068146     0.23800
C937        C  0.83358096  0.83837330  0.25383127    -0.24200
C938        C  0.80515683  0.82259496  0.23200716     0.18700
F939        F  0.76935811  0.82353027  0.24361051    -0.14100
F940        F  0.78375564  0.79276829  0.17771268    -0.16500
F941        F  0.89828452  0.85238292  0.26035949    -0.16500
F942        F  0.91383836  0.81996738  0.19389246    -0.14100
C943        C  0.92118209  0.87775816  0.49844851     0.23900
C944        C  0.91553228  0.91466383  0.48730970    -0.24200
C945        C  0.92961886  0.94332787  0.51004044     0.18800
C946        C  0.94635329  0.93576210  0.54405118     0.23800
C947        C  0.95029802  0.89904505  0.55656788    -0.24200
C948        C  0.93846457  0.86997004  0.53266296     0.18700
F949        F  0.94237063  0.83393927  0.54273291    -0.14100
F950        F  0.90806470  0.84925015  0.47743139    -0.16500
F951        F  0.95781879  0.96497143  0.56501870    -0.16500
F952        F  0.92599400  0.97934742  0.50002861    -0.14100
C953        C  0.73934740  0.13487840  0.52129773     0.23900
C954        C  0.72765319  0.16426568  0.49836068    -0.24200
C955        C  0.73643790  0.16317100  0.46021034     0.18800
C956        C  0.75345447  0.13216847  0.44474489     0.23800
C957        C  0.76130397  0.10113301  0.46673666    -0.24200
C958        C  0.75555416  0.10307733  0.50540964     0.18700
F959        F  0.76267345  0.07323832  0.52717977    -0.14100
F960        F  0.73243201  0.13564277  0.55842875    -0.16500
F961        F  0.76040316  0.13151260  0.40757774    -0.16500
F962        F  0.72704352  0.19159171  0.43741201    -0.14100
C963        C  0.12878025  0.52025422  0.73327162     0.23900
C964        C  0.16074717  0.49929651  0.72572996    -0.24200
C965        C  0.16209711  0.46209114  0.73719307     0.18800
C966        C  0.13106327  0.44523321  0.75319917     0.23800
C967        C  0.09823623  0.46539236  0.75858358    -0.24200
C968        C  0.09761221  0.50333111  0.74968569     0.18700
F969        F  0.06580860  0.52298783  0.75362747    -0.14100
F970        F  0.12648546  0.55593585  0.72159248    -0.16500
F971        F  0.13238341  0.40856770  0.76164464    -0.16500
F972        F  0.19295890  0.44146701  0.73091746    -0.14100
C973        C  0.83338951  0.24275092  0.87787811     0.23900
C974        C  0.83438086  0.25611950  0.84110688    -0.24200
C975        C  0.81678250  0.23532911  0.81306843     0.18800
C976        C  0.80104636  0.20093264  0.82067551     0.23800
C977        C  0.80182481  0.18618266  0.85686377    -0.24200
C978        C  0.81712184  0.20809122  0.88575283     0.18700
F979        F  0.81762696  0.19553510  0.92133870    -0.14100
F980        F  0.84992725  0.26210686  0.90579277    -0.16500
F981        F  0.78514302  0.18207323  0.79211594    -0.16500
F982        F  0.81553142  0.24794729  0.77761723    -0.14100
C983        C  0.87240682  0.53115729  0.93909105     0.23900
C984        C  0.90124329  0.55431323  0.95253569    -0.24200
C985        C  0.93787886  0.54085299  0.95154544     0.18800
C986        C  0.94562676  0.50600032  0.93670330     0.23800
C987        C  0.91720190  0.48391981  0.92135115    -0.24200
C988        C  0.88039900  0.49648095  0.92337417     0.18700
F989        F  0.85250029  0.47670979  0.90732198    -0.14100
F990        F  0.83659249  0.54271181  0.93916811    -0.16500
F991        F  0.98152491  0.49465612  0.93552116    -0.16500
F992        F  0.96675793  0.56184554  0.96368414    -0.14100
C993        C  0.78347155  0.37961192  0.68826885     0.23900
C994        C  0.80576952  0.35091862  0.70277238    -0.24200
C995        C  0.79177686  0.31437088  0.70193864     0.18800
C996        C  0.75736867  0.30651508  0.68623970     0.23800
C997        C  0.73613811  0.33463591  0.66985866    -0.24200
C998        C  0.74899225  0.37147559  0.67189245     0.18700
F999        F  0.72938712  0.39929594  0.65597361    -0.14100
F1000       F  0.79556556  0.41532868  0.68834909    -0.16500
F1001       F  0.74528010  0.27081835  0.68605392    -0.16500
F1002       F  0.81164050  0.28561511  0.71555308    -0.14100
C1003       C  0.11277716  0.41793399  0.96567586     0.23900
C1004       C  0.09712675  0.40981829  0.00085028    -0.24200
C1005       C  0.06246615  0.39178313  0.00224246     0.18800
C1006       C  0.04331088  0.38339403  0.96913902     0.23800
C1007       C  0.05856205  0.39305502  0.93434319    -0.24200
C1008       C  0.09361421  0.40976201  0.93292006     0.18700
F1009       F  0.10942526  0.41798637  0.89959106    -0.14100
F1010       F  0.14689222  0.43386279  0.96287201    -0.16500
F1011       F  0.00917484  0.36741625  0.97108444    -0.16500
F1012       F  0.04636475  0.38403881  0.03550372    -0.14100
C1013       C  0.04487632  0.57958940  0.12877473     0.23900
C1014       C  0.06101186  0.55471430  0.10316273    -0.24200
C1015       C  0.04117791  0.54504894  0.07083818     0.18800
C1016       C  0.00703736  0.56145683  0.06327795     0.23800
C1017       C  0.99180897  0.58757251  0.08790732    -0.24200
C1018       C  0.01056066  0.59593231  0.12110241     0.18700
F1019       F  0.99688584  0.62185227  0.14484733    -0.14100
F1020       F  0.06300722  0.58942541  0.16041686    -0.16500
F1021       F  0.98891156  0.55202843  0.03162742    -0.16500
F1022       F  0.05461900  0.51938909  0.04663495    -0.14100
C1023       C  0.36357214  0.48295363  0.24468729     0.23900
C1024       C  0.33355025  0.50577362  0.23480289    -0.24200
C1025       C  0.33483605  0.54370388  0.24411398     0.18800
C1026       C  0.36677173  0.55918262  0.25943359     0.23800
C1027       C  0.39814861  0.53722108  0.26562619    -0.24200
C1028       C  0.39593448  0.49871953  0.25985957     0.18700
F1029       F  0.42610084  0.47705920  0.26557916    -0.14100
F1030       F  0.36298601  0.44620499  0.23645384    -0.16500
F1031       F  0.36786237  0.59624558  0.26626336    -0.16500
F1032       F  0.30588035  0.56636811  0.23625375    -0.14100
C1033       C  0.23312788  0.61770494  0.01098659     0.23900
C1034       C  0.25472738  0.58657145  0.01978720    -0.24200
C1035       C  0.29210802  0.58553096  0.00850242     0.18800
C1036       C  0.30863072  0.61655529  0.99232044     0.23800
C1037       C  0.28798796  0.64893554  0.98675481    -0.24200
C1038       C  0.24973195  0.64883118  0.99443081     0.18700
F1039       F  0.22933749  0.67994142  0.98921863    -0.14100
F1040       F  0.19703032  0.61938186  0.02169330    -0.16500
F1041       F  0.34539004  0.61575285  0.98388816    -0.16500
F1042       F  0.31319122  0.55511814  0.01510398    -0.14100
C1043       C  0.26936632  0.38669141  0.50514800     0.23900
C1044       C  0.24748551  0.41812289  0.51233935    -0.24200
C1045       C  0.21047758  0.41863844  0.49986227     0.18800
C1046       C  0.19454074  0.38703818  0.48406853     0.23800
C1047       C  0.21525609  0.35441008  0.48041969    -0.24200
C1048       C  0.25321133  0.35482154  0.48940493     0.18700
F1049       F  0.27359712  0.32339333  0.48641957    -0.14100
F1050       F  0.30517012  0.38549586  0.51678518    -0.16500
F1051       F  0.15807943  0.38748949  0.47451047    -0.16500
F1052       F  0.18900240  0.44906945  0.50519138    -0.14100
C1053       C  0.00907493  0.29092690  0.58572159     0.23900
C1054       C  0.01826488  0.25308070  0.58516230    -0.24200
C1055       C  0.00466993  0.22989246  0.61365138     0.18800
C1056       C  0.98608247  0.24530374  0.64443398     0.23800
C1057       C  0.98087036  0.28387502  0.64664591    -0.24200
C1058       C  0.99037894  0.30604371  0.61598680     0.18700
F1059       F  0.98373496  0.34309920  0.61652871    -0.14100
F1060       F  0.01978366  0.31380516  0.55767453    -0.16500
F1061       F  0.97623865  0.22313665  0.67330354    -0.16500
F1062       F  0.01209954  0.19302423  0.61327461    -0.14100
C1063       C  0.95079796  0.05548628  0.43760611     0.23900
C1064       C  0.93792111  0.05230059  0.40069196    -0.24200
C1065       C  0.96171947  0.06453449  0.37174041     0.18800
C1066       C  0.99646955  0.08068462  0.37977235     0.23800
C1067       C  0.00849675  0.08453581  0.41679322    -0.24200
C1068       C  0.98567184  0.07053491  0.44534490     0.18700
F1069       F  0.99674350  0.07220819  0.48135979    -0.14100
F1070       F  0.92947118  0.04479839  0.46682261    -0.16500
F1071       F  0.01740086  0.09426306  0.35143127    -0.16500
F1072       F  0.95114040  0.06193913  0.33559080    -0.14100
C1073       C  0.12712899  0.32720995  0.24918753     0.23900
C1074       C  0.16412653  0.33412515  0.23859629    -0.24200
C1075       C  0.19272707  0.32151589  0.26197130     0.18800
C1076       C  0.18489109  0.30612822  0.29662751     0.23800
C1077       C  0.14789932  0.30034841  0.30833445    -0.24200
C1078       C  0.11907863  0.31008205  0.28349035     0.18700
F1079       F  0.08300034  0.30399530  0.29261946    -0.14100
F1080       F  0.09870700  0.33849669  0.22727064    -0.16500
F1081       F  0.21407433  0.29773944  0.31889485    -0.16500
F1082       F  0.22886959  0.32507051  0.25169235    -0.14100
C1083       C  0.06094621  0.01206927  0.56709663     0.23900
C1084       C  0.08904373  0.98971176  0.58215007    -0.24200
C1085       C  0.12612354  0.00188309  0.57906380     0.18800
C1086       C  0.13445650  0.03680674  0.56353599     0.23800
C1087       C  0.10576912  0.06036997  0.55099429    -0.24200
C1088       C  0.06899183  0.04691899  0.55253750     0.18700
F1089       F  0.04007061  0.06780621  0.54090591    -0.14100
F1090       F  0.02494715  0.00084447  0.56775186    -0.16500
F1091       F  0.17044745  0.04804170  0.56240450    -0.16500
F1092       F  0.15412949  0.98110313  0.59307066    -0.14100
C1093       C  0.37407706  0.99410405  0.08657790     0.23900
C1094       C  0.40904718  0.01131456  0.08454442    -0.24200
C1095       C  0.43746572  0.99378083  0.06428793     0.18800
C1096       C  0.43213393  0.95855050  0.04903177     0.23800
C1097       C  0.39744957  0.94059357  0.05162319    -0.24200
C1098       C  0.36811272  0.95935628  0.06979195     0.18700
F1099       F  0.33408955  0.94335945  0.07310347    -0.14100
F1100       F  0.34649321  0.00955392  0.10708945    -0.16500
F1101       F  0.46148176  0.94176342  0.03255980    -0.16500
F1102       F  0.47123491  0.01025621  0.06060284    -0.14100
C1103       C  0.29008597  0.12210355  0.32172156     0.23900
C1104       C  0.30938350  0.15035996  0.30245273    -0.24200
C1105       C  0.29178601  0.18480454  0.29768888     0.18800
C1106       C  0.25646559  0.19111681  0.31232358     0.23800
C1107       C  0.23804122  0.16355271  0.33300503    -0.24200
C1108       C  0.25482392  0.12870616  0.33690219     0.18700
F1109       F  0.23846799  0.10199163  0.35792707    -0.14100
F1110       F  0.30609840  0.08865716  0.32774259    -0.16500
F1111       F  0.24075500  0.22491832  0.30748288    -0.16500
F1112       F  0.30884597  0.21280610  0.27923003    -0.14100
C1113       C  0.32600357  0.25502763  0.12949867     0.23900
C1114       C  0.33463887  0.24509133  0.16631451    -0.24200
C1115       C  0.32549179  0.27029332  0.19506897     0.18800
C1116       C  0.31019995  0.30477878  0.18741710     0.23800
C1117       C  0.30257730  0.31550678  0.15061931    -0.24200
C1118       C  0.30995085  0.28972825  0.12172809     0.18700
F1119       F  0.30204598  0.29804534  0.08579640    -0.14100
F1120       F  0.33446094  0.23198559  0.10082960    -0.16500
F1121       F  0.30351388  0.32780288  0.21661743    -0.16500
F1122       F  0.33227335  0.26223387  0.23124491    -0.14100
C1123       C  0.57336370  0.11715324  0.99874338     0.23900
C1124       C  0.58394224  0.08039854  0.99088882    -0.24200
C1125       C  0.57396975  0.05253086  0.01668395     0.18800
C1126       C  0.55588122  0.06115488  0.04980872     0.23800
C1127       C  0.54755363  0.09814999  0.05906819    -0.24200
C1128       C  0.55567853  0.12599880  0.03255551     0.18700
F1129       F  0.54681365  0.16195213  0.03924673    -0.14100
F1130       F  0.58109782  0.14482486  0.97437039    -0.16500
F1131       F  0.54694464  0.03271163  0.07289934    -0.16500
F1132       F  0.58227566  0.01637686  0.01051929    -0.14100
C1133       C  0.53774379  0.24328554  0.33761394     0.23900
C1134       C  0.50022184  0.23244964  0.33702347    -0.24200
C1135       C  0.47718181  0.24193371  0.36725482     0.18800
C1136       C  0.49249753  0.25860679  0.39916210     0.23800
C1137       C  0.53071921  0.26637482  0.40064510    -0.24200
C1138       C  0.55275298  0.26019575  0.36903153     0.18700
F1139       F  0.58960716  0.26833615  0.36957241    -0.14100
F1140       F  0.56046296  0.23567888  0.30839982    -0.16500
F1141       F  0.47087163  0.26384966  0.42966651    -0.16500
F1142       F  0.44078890  0.23203144  0.36729837    -0.14100
C1143       C  0.61821676  0.01676442  0.22534217     0.23900
C1144       C  0.58595633  0.02262436  0.24657209    -0.24200
C1145       C  0.58441592  0.00967741  0.28335449     0.18800
C1146       C  0.61553949  0.99391795  0.29976143     0.23800
C1147       C  0.64869338  0.99035895  0.27959334    -0.24200
C1148       C  0.64949484  0.00038941  0.24177937     0.18700
F1149       F  0.68138326  0.99740656  0.22186864    -0.14100
F1150       F  0.62063447  0.03011042  0.19012179    -0.16500
F1151       F  0.61399031  0.98404597  0.33617119    -0.16500
F1152       F  0.55334545  0.01462622  0.30422205    -0.14100
loop_ 
_geom_bond_atom_site_label_1 
_geom_bond_atom_site_label_2 
_geom_bond_distance 
_geom_bond_site_symmetry_2 
_ccdc_geom_bond_type 
Zr1           O2   2.442       .  S
Zr1           O3   2.430       .  S
Zr1           O4   2.400       .  S
Zr1           O7   2.445       .  S
Zr1           O9   2.383       .  S
Zr1          O10   2.372       .  S
Zr1          O11   2.416       .  S
Zr1          O12   2.393       .  S
O2           H58   0.991   1_545  S
O2           H66   0.990   1_545  S
O3           C23   1.284       .  A
O4           C25   1.279       .  A
O5          Zr15   2.404       .  S
O5           C24   1.280       .  A
O6          Zr14   2.476       .  S
O6           C25   1.292       .  A
O7           C24   1.286       .  A
O8          Zr16   2.429       .  S
O8           C23   1.282       .  A
O9          Zr14   2.397       .  S
O9          Zr16   2.375       .  S
O10         Zr15   2.387       .  S
O10         Zr16   2.371       .  S
O10          H45   0.966       .  S
O11         Zr14   2.420       .  S
O11         Zr31   2.395       .  S
O11          H48   0.965       .  S
O12         Zr15   2.384       .  S
O12         Zr31   2.392       .  S
Zr13         O38   2.443       .  S
Zr13         O32   2.451       .  S
Zr13         O40   2.442       .  S
Zr13         O28   2.394       .  S
Zr13         O19   2.402       .  S
Zr13         O20   2.417       .  S
Zr13         O21   2.379       .  S
Zr13         O22   2.370       .  S
Zr14         O33   2.435       .  S
Zr14         O26   2.434       .  S
Zr14         O27   2.490       .  S
Zr14         O20   2.411       .  S
Zr14         O21   2.395       .  S
Zr15         O17   2.435       .  S
Zr15         O39   2.437       .  S
Zr15         O41   2.411       .  S
Zr15         O19   2.379       .  S
Zr15         O22   2.391       .  S
Zr16         O42   2.438       .  S
Zr16         O43   2.435       .  S
Zr16         O18   2.434       .  S
Zr16         O19   2.401       .  S
Zr16         O20   2.386       .  S
O17          H54   0.990       .  S
O18          H49   0.990       .  S
O18          H63   0.990       .  S
O20          H46   0.964       .  S
O21         Zr31   2.379       .  S
O22         Zr31   2.375       .  S
O22          H47   0.965       .  S
C23        C1127   1.496       .  S
C24        C1144   1.470       .  S
C25        C1094   1.481       .  S
O26          H62   0.990       .  S
O27          C29   1.295       .  A
O28          C29   1.277       .  A
C29        C1114   1.496       .  S
O30         Zr31   2.437       .  S
O30          H59   0.990       .  S
Zr31         O34   2.436       .  S
Zr31         O35   2.440       .  S
Zr31         O36   2.420       .  S
O32          C37   1.288       .  A
O33          H50   0.990       .  S
O33          H65   0.990       .  S
O34          H51   0.990       .  S
O35          H55   0.990       .  S
O35          H64   0.990       .  S
O36          C37   1.281       .  A
C37        C1104   1.491       .  S
O38          H57   0.990       .  S
O38          H61   0.990       .  S
O39          H53   0.990       .  S
O39          H60   0.990       .  S
O40          C44   1.285       .  A
O41          C44   1.282       .  A
O42          H52   0.990       .  S
O43          H56   0.990       .  S
C44        C1134   1.476       .  S
Zr67         O68   2.442       .  S
Zr67         O69   2.444       .  S
Zr67         O70   2.413       .  S
Zr67         O73   2.439       .  S
Zr67         O75   2.373       .  S
Zr67         O76   2.379       .  S
Zr67         O77   2.416       .  S
Zr67         O78   2.405       .  S
O68         H124   0.990       .  S
O68         H132   0.990   1_455  S
O69          C89   1.287       .  A
O70          C91   1.281       .  A
O71         Zr81   2.413       .  S
O71          C90   1.282       .  A
O72         Zr80   2.475       .  S
O72          C91   1.292       .  A
O73          C90   1.284       .  A
O74         Zr82   2.436       .  S
O74          C89   1.283       .  A
O75         Zr80   2.392       .  S
O75         Zr82   2.378       .  S
O76         Zr81   2.398       .  S
O76         Zr82   2.381       .  S
O76         H111   0.966       .  S
O77         Zr80   2.408       .  S
O77         Zr97   2.385       .  S
O77         H114   0.964       .  S
O78         Zr81   2.386       .  S
O78         Zr97   2.401       .  S
Zr79        O104   2.446       .  S
Zr79         O98   2.427       .  S
Zr79        O106   2.440       .  S
Zr79         O94   2.403       .  S
Zr79         O85   2.397       .  S
Zr79         O86   2.405       .  S
Zr79         O87   2.379       .  S
Zr79         O88   2.372       .  S
Zr80         O99   2.434       .  S
Zr80         O92   2.435       .  S
Zr80         O93   2.461       .  S
Zr80         O86   2.410       .  S
Zr80         O87   2.390       .  S
Zr81         O83   2.436       .  S
Zr81        O105   2.437       .  S
Zr81        O107   2.422       .  S
Zr81         O85   2.382       .  S
Zr81         O88   2.388       .  S
Zr82        O108   2.437       .  S
Zr82        O109   2.435       .  S
Zr82         O84   2.436       .  S
Zr82         O85   2.405       .  S
Zr82         O86   2.391       .  S
O83         H120   0.990       .  S
O84         H115   0.990       .  S
O84         H129   0.990       .  S
O86         H112   0.965       .  S
O87         Zr97   2.373       .  S
O88         Zr97   2.369       .  S
O88         H113   0.965       .  S
C89        C1087   1.499       .  S
C90        C1054   1.479       .  S
C91        C1067   1.489       .  S
O92         H128   0.990       .  S
O93          C95   1.291       .  A
O94          C95   1.280       .  A
C95        C1107   1.478       .  S
O96         Zr97   2.440       .  S
O96         H125   0.990       .  S
Zr97        O100   2.437       .  S
Zr97        O101   2.441       .  S
Zr97        O102   2.444       .  S
O98         C103   1.284       .  A
O99         H116   0.990       .  S
O99         H131   0.990       .  S
O100        H117   0.990       .  S
O101        H121   0.990       .  S
O101        H130   0.990       .  S
O102        C103   1.286       .  A
C103       C1077   1.500       .  S
O104        H123   0.990       .  S
O104        H127   0.990       .  S
O105        H119   0.990       .  S
O105        H126   0.990       .  S
O106        C110   1.284       .  A
O107        C110   1.283       .  A
O108        H118   0.990       .  S
O109        H122   0.990       .  S
C110       C1047   1.470       .  S
Zr133       O134   2.440       .  S
Zr133       O135   2.437       .  S
Zr133       O136   2.405       .  S
Zr133       O139   2.449       .  S
Zr133       O141   2.380       .  S
Zr133       O142   2.373       .  S
Zr133       O143   2.413       .  S
Zr133       O144   2.394       .  S
O134        H190   0.990       .  S
O134        H198   0.990       .  S
O135        C155   1.286       .  A
O136        C157   1.281       .  A
O137       Zr147   2.405       .  S
O137        C156   1.280       .  A
O138       Zr146   2.479       .  S
O138        C157   1.293       .  A
O139        C156   1.287       .  A
O140       Zr148   2.428       .  S
O140        C155   1.282       .  A
O141       Zr146   2.397       .  S
O141       Zr148   2.376       .  S
O142       Zr147   2.391       .  S
O142       Zr148   2.372       .  S
O142        H177   0.966       .  S
O143       Zr146   2.411       .  S
O143       Zr163   2.381       .  S
O143        H180   0.965       .  S
O144       Zr147   2.381       .  S
O144       Zr163   2.389       .  S
Zr145       O170   2.444       .  S
Zr145       O164   2.441       .  S
Zr145       O172   2.458       .  S
Zr145       O160   2.410       .  S
Zr145       O151   2.397       .  S
Zr145       O152   2.416       .  S
Zr145       O153   2.382       .  S
Zr145       O154   2.377       .  S
Zr146       O165   2.434       .  S
Zr146       O158   2.435       .  S
Zr146       O159   2.486       .  S
Zr146       O152   2.408       .  S
Zr146       O153   2.395       .  S
Zr147       O149   2.437       .  S
Zr147       O171   2.439       .  S
Zr147       O173   2.395       .  S
Zr147       O151   2.385       .  S
Zr147       O154   2.397       .  S
Zr148       O174   2.436       .  S
Zr148       O175   2.436       .  S
Zr148       O150   2.437       .  S
Zr148       O151   2.397       .  S
Zr148       O152   2.380       .  S
O149        H186   0.990       .  S
O150        H181   0.990       .  S
O150        H195   0.990       .  S
O152        H178   0.963       .  S
O153       Zr163   2.387       .  S
O154       Zr163   2.384       .  S
O154        H179   0.966       .  S
C155       C1117   1.497       .  S
C156       C1024   1.478       .  S
C157       C1074   1.489       .  S
O158        H194   0.990       .  S
O159        C161   1.295       .  A
O160        C161   1.281       .  A
C161       C1004   1.487       .  S
O162       Zr163   2.439       .  S
O162        H191   0.990       .  S
Zr163       O166   2.437       .  S
Zr163       O167   2.439       .  S
Zr163       O168   2.403       .  S
O164        C169   1.285       .  A
O165        H182   0.990       .  S
O165        H197   0.990       .  S
O166        H183   0.990       .  S
O167        H187   0.990       .  S
O167        H196   0.990       .  S
O168        C169   1.278       .  A
C169       C1014   1.479       .  S
O170        H189   0.991       .  S
O170        H193   0.991   1_554  S
O171        H185   0.990       .  S
O171        H192   0.990       .  S
O172        C176   1.285       .  A
O173        C176   1.278       .  A
O174        H184   0.990       .  S
O175        H188   0.990       .  S
C176       C1034   1.473       .  S
Zr199       O200   2.441       .  S
Zr199       O201   2.429       .  S
Zr199       O202   2.419       .  S
Zr199       O205   2.451       .  S
Zr199       O207   2.380       .  S
Zr199       O208   2.375       .  S
Zr199       O209   2.412       .  S
Zr199       O210   2.401       .  S
O200        H256   0.991       .  S
O200        H264   0.990       .  S
O201        C221   1.284       .  A
O202        C223   1.283       .  A
O203       Zr213   2.406   1_655  S
O203        C222   1.281       .  A
O204       Zr212   2.462       .  S
O204        C223   1.289       .  A
O205        C222   1.286       .  A
O206       Zr214   2.424       .  S
O206        C221   1.281       .  A
O207       Zr212   2.392       .  S
O207       Zr214   2.379       .  S
O208       Zr213   2.391   1_655  S
O208       Zr214   2.371       .  S
O208        H243   0.965       .  S
O209       Zr212   2.409       .  S
O209       Zr229   2.379   1_655  S
O209        H246   0.965       .  S
O210       Zr213   2.388   1_655  S
O210       Zr229   2.404   1_655  S
Zr211       O236   2.441       .  S
Zr211       O230   2.442   1_655  S
Zr211       O238   2.451   1_655  S
Zr211       O226   2.405       .  S
Zr211       O217   2.398       .  S
Zr211       O218   2.413       .  S
Zr211       O219   2.379       .  S
Zr211       O220   2.373   1_655  S
Zr212       O231   2.436       .  S
Zr212       O224   2.435       .  S
Zr212       O225   2.457       .  S
Zr212       O218   2.410       .  S
Zr212       O219   2.390       .  S
Zr213       O215   2.435       .  S
Zr213       O237   2.437       .  S
Zr213       O239   2.416       .  S
Zr213       O217   2.383   1_455  S
Zr213       O220   2.389       .  S
Zr214       O240   2.437       .  S
Zr214       O241   2.436       .  S
Zr214       O216   2.437       .  S
Zr214       O217   2.404       .  S
Zr214       O218   2.383       .  S
O215        H252   0.990       .  S
O216        H247   0.990       .  S
O216        H261   0.990       .  S
O218        H244   0.965       .  S
O219       Zr229   2.372   1_655  S
O220       Zr229   2.372       .  S
O220        H245   0.966       .  S
C221        C994   1.490       .  S
C222       C1057   1.474       .  S
C223        C974   1.483       .  S
O224        H260   0.990       .  S
O225        C227   1.290       .  A
O226        C227   1.281       .  A
C227        C987   1.477       .  S
O228       Zr229   2.438       .  S
O228        H257   0.990       .  S
Zr229       O232   2.436   1_455  S
Zr229       O233   2.440       .  S
Zr229       O234   2.429       .  S
O230        C235   1.286       .  A
O231        H248   0.990       .  S
O231        H263   0.990       .  S
O232        H249   0.990   1_655  S
O233        H253   0.990       .  S
O233        H262   0.990       .  S
O234        C235   1.282       .  A
C235       C1007   1.475       .  S
O236        H255   0.990       .  S
O236        H259   0.990   1_655  S
O237        H251   0.990       .  S
O237        H258   0.990   1_455  S
O238        C242   1.287       .  A
O239        C242   1.282       .  A
O240        H250   0.990       .  S
O241        H254   0.990       .  S
C242        C967   1.473       .  S
Zr265       O266   2.441       .  S
Zr265       O267   2.442       .  S
Zr265       O268   2.403       .  S
Zr265       O271   2.444       .  S
Zr265       O273   2.379       .  S
Zr265       O274   2.373       .  S
Zr265       O275   2.412       .  S
Zr265       O276   2.402       .  S
O266        H322   0.990       .  S
O266        H330   0.990       .  S
O267        C287   1.287       .  A
O268        C289   1.280       .  A
O269       Zr279   2.421       .  S
O269        C288   1.283   1_545  A
O270       Zr278   2.484       .  S
O270        C289   1.295       .  A
O271        C288   1.285       .  A
O272       Zr280   2.415       .  S
O272        C287   1.280       .  A
O273       Zr278   2.391       .  S
O273       Zr280   2.380       .  S
O274       Zr279   2.386   1_565  S
O274       Zr280   2.371       .  S
O274        H309   0.966       .  S
O275       Zr278   2.409       .  S
O275       Zr295   2.384   1_565  S
O275        H312   0.964       .  S
O276       Zr279   2.388   1_565  S
O276       Zr295   2.408   1_565  S
Zr277       O302   2.444       .  S
Zr277       O296   2.441   1_565  S
Zr277       O304   2.449   1_565  S
Zr277       O292   2.404       .  S
Zr277       O283   2.396       .  S
Zr277       O284   2.410       .  S
Zr277       O285   2.379       .  S
Zr277       O286   2.377   1_565  S
Zr278       O297   2.435       .  S
Zr278       O290   2.435       .  S
Zr278       O291   2.477       .  S
Zr278       O284   2.412       .  S
Zr278       O285   2.389       .  S
Zr279       O281   2.434       .  S
Zr279       O303   2.438       .  S
Zr279       O305   2.415       .  S
Zr279       O283   2.381   1_545  S
Zr279       O286   2.392       .  S
Zr280       O306   2.437       .  S
Zr280       O307   2.435       .  S
Zr280       O282   2.437       .  S
Zr280       O283   2.395       .  S
Zr280       O284   2.385       .  S
O281        H318   0.990       .  S
O282        H313   0.990       .  S
O282        H327   0.990       .  S
O284        H310   0.965       .  S
O285       Zr295   2.373   1_565  S
O286       Zr295   2.371       .  S
O286        H311   0.965       .  S
C287        C924   1.492       .  S
C288       C1147   1.472       .  S
C289        C937   1.487       .  S
O290        H326   0.990       .  S
O291        C293   1.294       .  A
O292        C293   1.281       .  A
C293        C944   1.490       .  S
O294       Zr295   2.442       .  S
O294        H323   0.990       .  S
Zr295       O298   2.439   1_545  S
Zr295       O299   2.442       .  S
Zr295       O300   2.440       .  S
O296        C301   1.288       .  A
O297        H314   0.990       .  S
O297        H329   0.990       .  S
O298        H315   0.990   1_565  S
O299        H319   0.990       .  S
O299        H328   0.990       .  S
O300        C301   1.285       .  A
C301       C1064   1.501       .  S
O302        H321   0.990       .  S
O302        H325   0.990       .  S
O303        H317   0.990       .  S
O303        H324   0.990   1_545  S
O304        C308   1.287       .  A
O305        C308   1.283       .  A
O306        H316   0.990       .  S
O307        H320   0.990       .  S
C308        C957   1.473       .  S
Zr331       O332   2.442       .  S
Zr331       O333   2.439       .  S
Zr331       O334   2.404       .  S
Zr331       O337   2.449       .  S
Zr331       O339   2.376       .  S
Zr331       O340   2.372       .  S
Zr331       O341   2.414       .  S
Zr331       O342   2.399       .  S
O332        H388   0.991       .  S
O332        H396   0.990       .  S
O333        C353   1.286       .  A
O334        C355   1.279       .  A
O335       Zr345   2.411       .  S
O335        C354   1.281   1_655  A
O336       Zr344   2.456       .  S
O336        C355   1.288       .  A
O337        C354   1.286       .  A
O338       Zr346   2.427       .  S
O338        C353   1.281       .  A
O339       Zr344   2.394       .  S
O339       Zr346   2.374       .  S
O340       Zr345   2.390   1_455  S
O340       Zr346   2.378       .  S
O340        H375   0.966       .  S
O341       Zr344   2.411       .  S
O341       Zr361   2.382       .  S
O341        H378   0.964       .  S
O342       Zr345   2.387   1_455  S
O342       Zr361   2.400       .  S
Zr343       O368   2.446       .  S
Zr343       O362   2.443   1_455  S
Zr343       O370   2.444   1_455  S
Zr343       O358   2.413       .  S
Zr343       O349   2.403       .  S
Zr343       O350   2.406       .  S
Zr343       O351   2.377       .  S
Zr343       O352   2.378   1_455  S
Zr344       O363   2.435       .  S
Zr344       O356   2.434       .  S
Zr344       O357   2.464       .  S
Zr344       O350   2.406       .  S
Zr344       O351   2.386       .  S
Zr345       O347   2.436       .  S
Zr345       O369   2.439       .  S
Zr345       O371   2.414       .  S
Zr345       O349   2.385   1_655  S
Zr345       O352   2.393       .  S
Zr346       O372   2.438       .  S
Zr346       O373   2.434       .  S
Zr346       O348   2.436       .  S
Zr346       O349   2.404       .  S
Zr346       O350   2.390       .  S
O347        H384   0.990       .  S
O348        H379   0.990       .  S
O348        H393   0.990       .  S
O350        H376   0.965       .  S
O351       Zr361   2.375       .  S
O352       Zr361   2.372   1_655  S
O352        H377   0.965       .  S
C353        C914   1.497       .  S
C354        C884   1.478   1_455  S
C355        C904   1.476       .  S
O356        H392   0.990       .  S
O357        C359   1.291       .  A
O358        C359   1.283       .  A
C359       C1084   1.489       .  S
O360       Zr361   2.438   1_655  S
O360        H389   0.990       .  S
Zr361       O364   2.437       .  S
Zr361       O365   2.441   1_455  S
Zr361       O366   2.426   1_455  S
O362        C367   1.288       .  A
O363        H380   0.990       .  S
O363        H395   0.990       .  S
O364        H381   0.990       .  S
O365        H385   0.990       .  S
O365        H394   0.990       .  S
O366        C367   1.281       .  A
C367        C947   1.497       .  S
O368        H387   0.990   1_565  S
O368        H391   0.990   1_565  S
O369        H383   0.990       .  S
O369        H390   0.990       .  S
O370        C374   1.285       .  A
O371        C374   1.282       .  A
O372        H382   0.990       .  S
O373        H386   0.990       .  S
C374        C894   1.468       .  S
Zr397       O398   2.440       .  S
Zr397       O399   2.426       .  S
Zr397       O400   2.404       .  S
Zr397       O403   2.430       .  S
Zr397       O405   2.380       .  S
Zr397       O406   2.375       .  S
Zr397       O407   2.406       .  S
Zr397       O408   2.396       .  S
O398        H454   0.990       .  S
O398        H462   0.990       .  S
O399        C419   1.284       .  A
O400        C421   1.280       .  A
O401       Zr411   2.421       .  S
O401        C420   1.283   1_554  A
O402       Zr410   2.478       .  S
O402        C421   1.294       .  A
O403        C420   1.283       .  A
O404       Zr412   2.428       .  S
O404        C419   1.283       .  A
O405       Zr410   2.387       .  S
O405       Zr412   2.379       .  S
O406       Zr411   2.386   1_556  S
O406       Zr412   2.367       .  S
O406        H441   0.966       .  S
O407       Zr410   2.407       .  S
O407       Zr427   2.378   1_556  S
O407        H444   0.964       .  S
O408       Zr411   2.383   1_556  S
O408       Zr427   2.400   1_556  S
Zr409       O434   2.443       .  S
Zr409       O428   2.445   1_556  S
Zr409       O436   2.461   1_556  S
Zr409       O424   2.408       .  S
Zr409       O415   2.403       .  S
Zr409       O416   2.414       .  S
Zr409       O417   2.380       .  S
Zr409       O418   2.375   1_556  S
Zr410       O429   2.437       .  S
Zr410       O422   2.435       .  S
Zr410       O423   2.455       .  S
Zr410       O416   2.412       .  S
Zr410       O417   2.396       .  S
Zr411       O413   2.434       .  S
Zr411       O435   2.436       .  S
Zr411       O437   2.404       .  S
Zr411       O415   2.391   1_554  S
Zr411       O418   2.396       .  S
Zr412       O438   2.435       .  S
Zr412       O439   2.437       .  S
Zr412       O414   2.439       .  S
Zr412       O415   2.405       .  S
Zr412       O416   2.377       .  S
O413        H450   0.990       .  S
O414        H445   0.990       .  S
O414        H459   0.990       .  S
O416        H442   0.964       .  S
O417       Zr427   2.374   1_556  S
O418       Zr427   2.374       .  S
O418        H443   0.966       .  S
C419        C874   1.486       .  S
C420       C1037   1.468       .  S
C421        C917   1.492       .  S
O422        H458   0.990       .  S
O423        C425   1.289       .  A
O424        C425   1.282       .  A
C425        C864   1.468       .  S
O426       Zr427   2.438       .  S
O426        H455   0.990       .  S
Zr427       O430   2.438   1_554  S
Zr427       O431   2.439       .  S
Zr427       O432   2.416       .  S
O428        C433   1.287       .  A
O429        H446   0.990       .  S
O429        H461   0.990       .  S
O430        H447   0.990   1_556  S
O431        H451   0.990       .  S
O431        H460   0.990       .  S
O432        C433   1.280       .  A
C433       C1097   1.493       .  S
O434        H453   0.991   1_556  S
O434        H457   0.990       .  S
O435        H449   0.990       .  S
O435        H456   0.990   1_554  S
O436        C440   1.287       .  A
O437        C440   1.280       .  A
O438        H448   0.990       .  S
O439        H452   0.990       .  S
C440        C854   1.472       .  S
Zr463       O464   2.442       .  S
Zr463       O465   2.431       .  S
Zr463       O466   2.417       .  S
Zr463       O469   2.452       .  S
Zr463       O471   2.381       .  S
Zr463       O472   2.378       .  S
Zr463       O473   2.416       .  S
Zr463       O474   2.398       .  S
O464        H520   0.991       .  S
O464        H528   0.990       .  S
O465        C485   1.283       .  A
O466        C487   1.281       .  A
O467       Zr477   2.405       .  S
O467        C486   1.280       .  A
O468       Zr476   2.454       .  S
O468        C487   1.288       .  A
O469        C486   1.287       .  A
O470       Zr478   2.421       .  S
O470        C485   1.280       .  A
O471       Zr476   2.397       .  S
O471       Zr478   2.376       .  S
O472       Zr477   2.390       .  S
O472       Zr478   2.373       .  S
O472        H507   0.966       .  S
O473       Zr476   2.419       .  S
O473       Zr493   2.389       .  S
O473        H510   0.964       .  S
O474       Zr477   2.382       .  S
O474       Zr493   2.390       .  S
Zr475       O500   2.441       .  S
Zr475       O494   2.455       .  S
Zr475       O502   2.449       .  S
Zr475       O490   2.413       .  S
Zr475       O481   2.404       .  S
Zr475       O482   2.415       .  S
Zr475       O483   2.373       .  S
Zr475       O484   2.377       .  S
Zr476       O495   2.436       .  S
Zr476       O488   2.435       .  S
Zr476       O489   2.471       .  S
Zr476       O482   2.409       .  S
Zr476       O483   2.393       .  S
Zr477       O479   2.435       .  S
Zr477       O501   2.437       .  S
Zr477       O503   2.404       .  S
Zr477       O481   2.383       .  S
Zr477       O484   2.393       .  S
Zr478       O504   2.438       .  S
Zr478       O505   2.435       .  S
Zr478       O480   2.438       .  S
Zr478       O481   2.395       .  S
Zr478       O482   2.385       .  S
O479        H516   0.990       .  S
O480        H511   0.990       .  S
O480        H525   0.990       .  S
O482        H508   0.964       .  S
O483       Zr493   2.382       .  S
O484       Zr493   2.379       .  S
O484        H509   0.966       .  S
C485        C907   1.490       .  S
C486        C964   1.474       .  S
C487        C877   1.476       .  S
O488        H524   0.990       .  S
O489        C491   1.291       .  A
O490        C491   1.281       .  A
C491        C847   1.487       .  S
O492       Zr493   2.439       .  S
O492        H521   0.990       .  S
Zr493       O496   2.439       .  S
Zr493       O497   2.444       .  S
Zr493       O498   2.412       .  S
O494        C499   1.288       .  A
O495        H512   0.990       .  S
O495        H527   0.990       .  S
O496        H513   0.990       .  S
O497        H517   0.990       .  S
O497        H526   0.990       .  S
O498        C499   1.278       .  A
C499        C834   1.486       .  S
O500        H519   0.990       .  S
O500        H523   0.990       .  S
O501        H515   0.990       .  S
O501        H522   0.990       .  S
O502        C506   1.287       .  A
O503        C506   1.280       .  A
O504        H514   0.990       .  S
O505        H518   0.990       .  S
C506       C1044   1.476       .  S
Zr529       O530   2.440       .  S
Zr529       O531   2.439       .  S
Zr529       O532   2.400       .  S
Zr529       O535   2.435       .  S
Zr529       O537   2.380       .  S
Zr529       O538   2.373       .  S
Zr529       O539   2.411       .  S
Zr529       O540   2.399       .  S
O530        H586   0.990       .  S
O530        H594   0.990       .  S
O531        C551   1.287       .  A
O532        C553   1.279       .  A
O533       Zr543   2.414       .  S
O533        C552   1.282       .  A
O534       Zr542   2.476       .  S
O534        C553   1.293       .  A
O535        C552   1.283       .  A
O536       Zr544   2.426       .  S
O536        C551   1.281       .  A
O537       Zr542   2.395       .  S
O537       Zr544   2.380       .  S
O538       Zr543   2.391       .  S
O538       Zr544   2.370       .  S
O538        H573   0.966       .  S
O539       Zr542   2.410       .  S
O539       Zr559   2.390       .  S
O539        H576   0.965       .  S
O540       Zr543   2.383       .  S
O540       Zr559   2.402       .  S
Zr541       O566   2.441       .  S
Zr541       O560   2.424       .  S
Zr541       O568   2.447       .  S
Zr541       O556   2.400       .  S
Zr541       O547   2.394       .  S
Zr541       O548   2.413       .  S
Zr541       O549   2.381       .  S
Zr541       O550   2.370       .  S
Zr542       O561   2.437       .  S
Zr542       O554   2.435       .  S
Zr542       O555   2.472       .  S
Zr542       O548   2.414       .  S
Zr542       O549   2.396       .  S
Zr543       O545   2.436       .  S
Zr543       O567   2.436       .  S
Zr543       O569   2.409       .  S
Zr543       O547   2.386       .  S
Zr543       O550   2.388       .  S
Zr544       O570   2.436       .  S
Zr544       O571   2.434       .  S
Zr544       O546   2.436       .  S
Zr544       O547   2.399       .  S
Zr544       O548   2.382       .  S
O545        H582   0.990       .  S
O546        H577   0.990       .  S
O546        H591   0.990       .  S
O548        H574   0.964       .  S
O549       Zr559   2.379       .  S
O550       Zr559   2.379       .  S
O550        H575   0.965       .  S
C551        C844   1.497       .  S
C552       C1027   1.468       .  S
C553        C814   1.487       .  S
O554        H590   0.990       .  S
O555        C557   1.292       .  A
O556        C557   1.279       .  A
C557        C927   1.484       .  S
O558       Zr559   2.441       .  S
O558        H587   0.990       .  S
Zr559       O562   2.438       .  S
Zr559       O563   2.444       .  S
Zr559       O564   2.427       .  S
O560        C565   1.283       .  A
O561        H578   0.990       .  S
O561        H593   0.990       .  S
O562        H579   0.990       .  S
O563        H583   0.990       .  S
O563        H592   0.989       .  S
O564        C565   1.282       .  A
C565        C824   1.490       .  S
O566        H585   0.990       .  S
O566        H589   0.991       .  S
O567        H581   0.990       .  S
O567        H588   0.990       .  S
O568        C572   1.286       .  A
O569        C572   1.281       .  A
O570        H580   0.990       .  S
O571        H584   0.990       .  S
C572        C857   1.475       .  S
Zr595       O596   2.440       .  S
Zr595       O597   2.432       .  S
Zr595       O598   2.415       .  S
Zr595       O601   2.449       .  S
Zr595       O603   2.382       .  S
Zr595       O604   2.377       .  S
Zr595       O605   2.410       .  S
Zr595       O606   2.398       .  S
O596        H652   0.990       .  S
O596        H660   0.990       .  S
O597        C617   1.285       .  A
O598        C619   1.282       .  A
O599       Zr609   2.417       .  S
O599        C618   1.283       .  A
O600       Zr608   2.456       .  S
O600        C619   1.289       .  A
O601        C618   1.286       .  A
O602       Zr610   2.435       .  S
O602        C617   1.283       .  A
O603       Zr608   2.393       .  S
O603       Zr610   2.374       .  S
O604       Zr609   2.388       .  S
O604       Zr610   2.376       .  S
O604        H639   0.966       .  S
O605       Zr608   2.410       .  S
O605       Zr625   2.381       .  S
O605        H642   0.965       .  S
O606       Zr609   2.384       .  S
O606       Zr625   2.398       .  S
Zr607       O632   2.439       .  S
Zr607       O626   2.448       .  S
Zr607       O634   2.448       .  S
Zr607       O622   2.410       .  S
Zr607       O613   2.408       .  S
Zr607       O614   2.412       .  S
Zr607       O615   2.379       .  S
Zr607       O616   2.374       .  S
Zr608       O627   2.434       .  S
Zr608       O620   2.437       .  S
Zr608       O621   2.461       .  S
Zr608       O614   2.404       .  S
Zr608       O615   2.390       .  S
Zr609       O611   2.436       .  S
Zr609       O633   2.435       .  S
Zr609       O635   2.409       .  S
Zr609       O613   2.386       .  S
Zr609       O616   2.390       .  S
Zr610       O636   2.436       .  S
Zr610       O637   2.436       .  S
Zr610       O612   2.436       .  S
Zr610       O613   2.409       .  S
Zr610       O614   2.388       .  S
O611        H648   0.990       .  S
O612        H643   0.990       .  S
O612        H657   0.990       .  S
O614        H640   0.965       .  S
O615       Zr625   2.377       .  S
O616       Zr625   2.368       .  S
O616        H641   0.966       .  S
C617        C804   1.497       .  S
C618        C954   1.483       .  S
C619        C997   1.479       .  S
O620        H656   0.990       .  S
O621        C623   1.290       .  A
O622        C623   1.282       .  A
C623        C837   1.472       .  S
O624       Zr625   2.438       .  S
O624        H653   0.990       .  S
Zr625       O628   2.438       .  S
Zr625       O629   2.441       .  S
Zr625       O630   2.418       .  S
O626        C631   1.288       .  A
O627        H644   0.990       .  S
O627        H659   0.990       .  S
O628        H645   0.990       .  S
O629        H649   0.990       .  S
O629        H658   0.990       .  S
O630        C631   1.280       .  A
C631        C817   1.496       .  S
O632        H651   0.990       .  S
O632        H655   0.990       .  S
O633        H647   0.990       .  S
O633        H654   0.990       .  S
O634        C638   1.286       .  A
O635        C638   1.281       .  A
O636        H646   0.990       .  S
O637        H650   0.990       .  S
C638       C1137   1.469       .  S
Zr661       O662   2.439   1_545  S
Zr661       O663   2.428   1_545  S
Zr661       O664   2.402       .  S
Zr661       O667   2.432   1_545  S
Zr661       O669   2.381       .  S
Zr661       O670   2.374   1_545  S
Zr661       O671   2.406       .  S
Zr661       O672   2.397       .  S
O662        H718   0.990   1_556  S
O662        H726   0.990   1_566  S
O663        C683   1.285       .  A
O664        C685   1.279       .  A
O665       Zr675   2.417       .  S
O665        C684   1.281       .  A
O666       Zr674   2.482       .  S
O666        C685   1.294       .  A
O667        C684   1.283       .  A
O668       Zr676   2.418       .  S
O668        C683   1.281       .  A
O669       Zr674   2.393       .  S
O669       Zr676   2.380   1_545  S
O670       Zr675   2.386       .  S
O670       Zr676   2.365       .  S
O670        H705   0.965       .  S
O671       Zr674   2.411       .  S
O671       Zr691   2.388       .  S
O671        H708   0.964       .  S
O672       Zr675   2.382   1_545  S
O672       Zr691   2.403       .  S
Zr673       O698   2.440       .  S
Zr673       O692   2.435       .  S
Zr673       O700   2.444       .  S
Zr673       O688   2.419       .  S
Zr673       O679   2.398       .  S
Zr673       O680   2.413       .  S
Zr673       O681   2.377       .  S
Zr673       O682   2.377       .  S
Zr674       O693   2.434       .  S
Zr674       O686   2.434       .  S
Zr674       O687   2.476       .  S
Zr674       O680   2.418       .  S
Zr674       O681   2.395       .  S
Zr675       O677   2.435       .  S
Zr675       O699   2.440       .  S
Zr675       O701   2.403       .  S
Zr675       O679   2.386   1_565  S
Zr675       O682   2.392   1_565  S
Zr676       O702   2.438       .  S
Zr676       O703   2.436       .  S
Zr676       O678   2.436   1_565  S
Zr676       O679   2.393   1_565  S
Zr676       O680   2.381   1_565  S
O677        H714   0.990       .  S
O678        H709   0.990   1_545  S
O678        H723   0.989       .  S
O680        H706   0.964       .  S
O681       Zr691   2.379       .  S
O682       Zr691   2.381       .  S
O682        H707   0.965       .  S
C683        C867   1.478       .  S
C684        C794   1.464       .  S
C685       C1124   1.496       .  S
O686        H722   0.989       .  S
O687        C689   1.293       .  A
O688        C689   1.282       .  A
C689        C807   1.494       .  S
O690       Zr691   2.437       .  S
O690        H719   0.990       .  S
Zr691       O694   2.437       .  S
Zr691       O695   2.442       .  S
Zr691       O696   2.421       .  S
O692        C697   1.285       .  A
O693        H710   0.990       .  S
O693        H725   0.990       .  S
O694        H711   0.990       .  S
O695        H715   0.990       .  S
O695        H724   0.990       .  S
O696        C697   1.280       .  A
C697        C977   1.488       .  S
O698        H717   0.990       .  S
O698        H721   0.990       .  S
O699        H713   0.990       .  S
O699        H720   0.990       .  S
O700        C704   1.285       .  A
O701        C704   1.280   1_565  A
O702        H712   0.990       .  S
O703        H716   0.990   1_565  S
C704        C897   1.474   1_545  S
Zr727       O728   2.439   1_554  S
Zr727       O729   2.436   1_554  S
Zr727       O730   2.411       .  S
Zr727       O733   2.441   1_554  S
Zr727       O735   2.381       .  S
Zr727       O736   2.378   1_554  S
Zr727       O737   2.411       .  S
Zr727       O738   2.398       .  S
O728        H784   0.990   1_655  S
O728        H792   0.990   1_656  S
O729        C749   1.286       .  A
O730        C751   1.281       .  A
O731       Zr741   2.419       .  S
O731        C750   1.283       .  A
O732       Zr740   2.456       .  S
O732        C751   1.289       .  A
O733        C750   1.285       .  A
O734       Zr742   2.419       .  S
O734        C749   1.280       .  A
O735       Zr740   2.390       .  S
O735       Zr742   2.373   1_554  S
O736       Zr741   2.391       .  S
O736       Zr742   2.371       .  S
O736        H771   0.966       .  S
O737       Zr740   2.408       .  S
O737       Zr757   2.394       .  S
O737        H774   0.965       .  S
O738       Zr741   2.383   1_554  S
O738       Zr757   2.401       .  S
Zr739       O764   2.440       .  S
Zr739       O758   2.444       .  S
Zr739       O766   2.438       .  S
Zr739       O754   2.412       .  S
Zr739       O745   2.401       .  S
Zr739       O746   2.409       .  S
Zr739       O747   2.374       .  S
Zr739       O748   2.374       .  S
Zr740       O759   2.433       .  S
Zr740       O752   2.435       .  S
Zr740       O753   2.454       .  S
Zr740       O746   2.409       .  S
Zr740       O747   2.389       .  S
Zr741       O743   2.437       .  S
Zr741       O765   2.436       .  S
Zr741       O767   2.410       .  S
Zr741       O745   2.385   1_556  S
Zr741       O748   2.393   1_556  S
Zr742       O768   2.438       .  S
Zr742       O769   2.436       .  S
Zr742       O744   2.436   1_556  S
Zr742       O745   2.397   1_556  S
Zr742       O746   2.380   1_556  S
O743        H780   0.990       .  S
O744        H775   0.990       .  S
O744        H789   0.990       .  S
O746        H772   0.964       .  S
O747       Zr757   2.376       .  S
O748       Zr757   2.379       .  S
O748        H773   0.965       .  S
C749        C984   1.491       .  S
C750        C887   1.473       .  S
C751       C1017   1.471       .  S
O752        H788   0.990       .  S
O753        C755   1.288       .  A
O754        C755   1.282       .  A
C755        C827   1.478       .  S
O756       Zr757   2.437       .  S
O756        H785   0.990       .  S
Zr757       O760   2.437       .  S
Zr757       O761   2.442       .  S
Zr757       O762   2.433       .  S
O758        C763   1.287       .  A
O759        H776   0.990       .  S
O759        H791   0.990       .  S
O760        H777   0.990       .  S
O761        H781   0.990       .  S
O761        H790   0.990       .  S
O762        C763   1.283       .  A
C763        C934   1.499       .  S
O764        H783   0.990       .  S
O764        H787   0.990       .  S
O765        H779   0.990       .  S
O765        H786   0.990       .  S
O766        C770   1.285       .  A
O767        C770   1.281   1_556  A
O768        H778   0.990       .  S
O769        H782   0.990   1_556  S
C770        C797   1.472   1_554  S
C793        C794   1.402       .  A
C793        C798   1.393       .  A
C793        F800   1.359       .  S
C794        C795   1.403   1_556  A
C795        C796   1.401       .  A
C795        F802   1.357       .  S
C796        C797   1.406   1_554  A
C796        F801   1.357       .  S
C797        C798   1.407       .  A
C798        F799   1.359       .  S
C803        C804   1.415       .  A
C803        C808   1.409       .  A
C803        F810   1.358       .  S
C804        C805   1.409       .  A
C805        C806   1.393       .  A
C805        F812   1.358       .  S
C806        C807   1.411       .  A
C806        F811   1.356       .  S
C807        C808   1.409       .  A
C808        F809   1.357       .  S
C813        C814   1.404       .  A
C813        C818   1.405       .  A
C813        F820   1.358       .  S
C814        C815   1.409       .  A
C815        C816   1.394       .  A
C815        F822   1.354       .  S
C816        C817   1.407       .  A
C816        F821   1.358       .  S
C817        C818   1.418       .  A
C818        F819   1.358       .  S
C823        C824   1.414       .  A
C823        C828   1.406       .  A
C823        F830   1.357       .  S
C824        C825   1.410       .  A
C825        C826   1.388       .  A
C825        F832   1.354       .  S
C826        C827   1.403       .  A
C826        F831   1.357       .  S
C827        C828   1.407       .  A
C828        F829   1.357       .  S
C833        C834   1.411       .  A
C833        C838   1.403       .  A
C833        F840   1.358       .  S
C834        C835   1.406       .  A
C835        C836   1.396       .  A
C835        F842   1.353       .  S
C836        C837   1.402       .  A
C836        F841   1.358       .  S
C837        C838   1.405       .  A
C838        F839   1.358       .  S
C843        C844   1.407       .  A
C843        C848   1.389       .  A
C843        F850   1.355       .  S
C844        C845   1.417       .  A
C845        C846   1.410       .  A
C845        F852   1.358       .  S
C846        C847   1.408       .  A
C846        F851   1.358       .  S
C847        C848   1.406       .  A
C848        F849   1.355       .  S
C853        C854   1.407       .  A
C853        C858   1.407       .  A
C853        F860   1.357       .  S
C854        C855   1.403       .  A
C855        C856   1.392       .  A
C855        F862   1.358       .  S
C856        C857   1.405       .  A
C856        F861   1.359       .  S
C857        C858   1.407       .  A
C858        F859   1.358       .  S
C863        C864   1.401       .  A
C863        C868   1.390       .  A
C863        F870   1.355       .  S
C864        C865   1.404       .  A
C865        C866   1.401       .  A
C865        F872   1.358       .  S
C866        C867   1.410       .  A
C866        F871   1.358       .  S
C867        C868   1.406       .  A
C868        F869   1.355       .  S
C873        C874   1.409       .  A
C873        C878   1.392       .  A
C873        F880   1.356       .  S
C874        C875   1.412       .  A
C875        C876   1.404       .  A
C875        F882   1.358       .  S
C876        C877   1.405       .  A
C876        F881   1.357       .  S
C877        C878   1.404       .  A
C878        F879   1.357       .  S
C883        C884   1.408   1_455  A
C883        C888   1.406       .  A
C883        F890   1.357       .  S
C884        C885   1.407       .  A
C885        C886   1.394       .  A
C885        F892   1.358       .  S
C886        C887   1.402       .  A
C886        F891   1.359       .  S
C887        C888   1.406   1_655  A
C888        F889   1.358       .  S
C893        C894   1.402       .  A
C893        C898   1.392       .  A
C893        F900   1.359       .  S
C894        C895   1.405   1_565  A
C895        C896   1.404       .  A
C895        F902   1.357       .  S
C896        C897   1.407   1_545  A
C896        F901   1.357       .  S
C897        C898   1.406       .  A
C898        F899   1.359       .  S
C903        C904   1.404       .  A
C903        C908   1.402       .  A
C903        F910   1.358       .  S
C904        C905   1.406       .  A
C905        C906   1.392       .  A
C905        F912   1.358       .  S
C906        C907   1.410       .  A
C906        F911   1.357       .  S
C907        C908   1.414       .  A
C908        F909   1.357       .  S
C913        C914   1.408       .  A
C913        C918   1.392       .  A
C913        F920   1.358       .  S
C914        C915   1.416       .  A
C915        C916   1.407       .  A
C915        F922   1.357       .  S
C916        C917   1.407       .  A
C916        F921   1.358       .  S
C917        C918   1.412       .  A
C918        F919   1.356       .  S
C923        C924   1.406       .  A
C923        C928   1.390       .  A
C923        F930   1.356       .  S
C924        C925   1.417       .  A
C925        C926   1.405       .  A
C925        F932   1.357       .  S
C926        C927   1.405       .  A
C926        F931   1.357       .  S
C927        C928   1.408       .  A
C928        F929   1.353       .  S
C933        C934   1.410       .  A
C933        C938   1.394       .  A
C933        F940   1.357       .  S
C934        C935   1.417       .  A
C935        C936   1.408       .  A
C935        F942   1.357       .  S
C936        C937   1.405       .  A
C936        F941   1.358       .  S
C937        C938   1.408       .  A
C938        F939   1.356       .  S
C943        C944   1.407       .  A
C943        C948   1.408       .  A
C943        F950   1.358       .  S
C944        C945   1.409       .  A
C945        C946   1.392       .  A
C945        F952   1.356       .  S
C946        C947   1.407       .  A
C946        F951   1.357       .  S
C947        C948   1.418       .  A
C948        F949   1.358       .  S
C953        C954   1.411       .  A
C953        C958   1.409       .  A
C953        F960   1.357       .  S
C954        C955   1.407       .  A
C955        C956   1.392       .  A
C955        F962   1.358       .  S
C956        C957   1.402       .  A
C956        F961   1.359       .  S
C957        C958   1.407       .  A
C958        F959   1.358       .  S
C963        C964   1.406       .  A
C963        C968   1.405       .  A
C963        F970   1.357       .  S
C964        C965   1.406       .  A
C965        C966   1.395       .  A
C965        F972   1.359       .  S
C966        C967   1.404       .  A
C966        F971   1.358       .  S
C967        C968   1.406       .  A
C968        F969   1.357       .  S
C973        C974   1.408       .  A
C973        C978   1.407       .  A
C973        F980   1.357       .  S
C974        C975   1.405       .  A
C975        C976   1.389       .  A
C975        F982   1.355       .  S
C976        C977   1.407       .  A
C976        F981   1.356       .  S
C977        C978   1.414       .  A
C978        F979   1.358       .  S
C983        C984   1.415       .  A
C983        C988   1.402       .  A
C983        F990   1.358       .  S
C984        C985   1.409       .  A
C985        C986   1.393       .  A
C985        F992   1.356       .  S
C986        C987   1.407       .  A
C986        F991   1.359       .  S
C987        C988   1.405       .  A
C988        F989   1.358       .  S
C993        C994   1.414       .  A
C993        C998   1.405       .  A
C993       F1000   1.358       .  S
C994        C995   1.409       .  A
C995        C996   1.390       .  A
C995       F1002   1.355       .  S
C996        C997   1.404       .  A
C996       F1001   1.357       .  S
C997        C998   1.407       .  A
C998        F999   1.358       .  S
C1003      C1004   1.414   1_556  A
C1003      C1008   1.396       .  A
C1003      F1010   1.358       .  S
C1004      C1005   1.406       .  A
C1005      C1006   1.408   1_554  A
C1005      F1012   1.357       .  S
C1006      C1007   1.409       .  A
C1006      F1011   1.358       .  S
C1007      C1008   1.398       .  A
C1008      F1009   1.359       .  S
C1013      C1014   1.410       .  A
C1013      C1018   1.400       .  A
C1013      F1020   1.358       .  S
C1014      C1015   1.407       .  A
C1015      C1016   1.395       .  A
C1015      F1022   1.359       .  S
C1016      C1017   1.404   1_455  A
C1016      F1021   1.354   1_455  S
C1017      C1018   1.403   1_655  A
C1018      F1019   1.358   1_455  S
C1023      C1024   1.409       .  A
C1023      C1028   1.405       .  A
C1023      F1030   1.357       .  S
C1024      C1025   1.408       .  A
C1025      C1026   1.390       .  A
C1025      F1032   1.359       .  S
C1026      C1027   1.402       .  A
C1026      F1031   1.359       .  S
C1027      C1028   1.405       .  A
C1028      F1029   1.358       .  S
C1033      C1034   1.406       .  A
C1033      C1038   1.403   1_554  A
C1033      F1040   1.357       .  S
C1034      C1035   1.407       .  A
C1035      C1036   1.393   1_554  A
C1035      F1042   1.359       .  S
C1036      C1037   1.402       .  A
C1036      F1041   1.359       .  S
C1037      C1038   1.405       .  A
C1038      F1039   1.357       .  S
C1043      C1044   1.407       .  A
C1043      C1048   1.404       .  A
C1043      F1050   1.358       .  S
C1044      C1045   1.408       .  A
C1045      C1046   1.394       .  A
C1045      F1052   1.359       .  S
C1046      C1047   1.402       .  A
C1046      F1051   1.358       .  S
C1047      C1048   1.406       .  A
C1048      F1049   1.357       .  S
C1053      C1054   1.406       .  A
C1053      C1058   1.390   1_455  A
C1053      F1060   1.359       .  S
C1054      C1055   1.410       .  A
C1055      C1056   1.407   1_455  A
C1055      F1062   1.357       .  S
C1056      C1057   1.406       .  A
C1056      F1061   1.357       .  S
C1057      C1058   1.404       .  A
C1058      F1059   1.359       .  S
C1063      C1064   1.410       .  A
C1063      C1068   1.394       .  A
C1063      F1070   1.356       .  S
C1064      C1065   1.417       .  A
C1065      C1066   1.408       .  A
C1065      F1072   1.357       .  S
C1066      C1067   1.406   1_655  A
C1066      F1071   1.358   1_655  S
C1067      C1068   1.407   1_455  A
C1068      F1069   1.356       .  S
C1073      C1074   1.407       .  A
C1073      C1078   1.410       .  A
C1073      F1080   1.357       .  S
C1074      C1075   1.408       .  A
C1075      C1076   1.393       .  A
C1075      F1082   1.359       .  S
C1076      C1077   1.412       .  A
C1076      F1081   1.358       .  S
C1077      C1078   1.416       .  A
C1078      F1079   1.357       .  S
C1083      C1084   1.407   1_545  A
C1083      C1088   1.392       .  A
C1083      F1090   1.357       .  S
C1084      C1085   1.409   1_565  A
C1085      C1086   1.410       .  A
C1085      F1092   1.358   1_545  S
C1086      C1087   1.416       .  A
C1086      F1091   1.357       .  S
C1087      C1088   1.410       .  A
C1088      F1089   1.356       .  S
C1093      C1094   1.404   1_565  A
C1093      C1098   1.405       .  A
C1093      F1100   1.357   1_565  S
C1094      C1095   1.407   1_545  A
C1095      C1096   1.395       .  A
C1095      F1102   1.358   1_565  S
C1096      C1097   1.408       .  A
C1096      F1101   1.356       .  S
C1097      C1098   1.416       .  A
C1098      F1099   1.358       .  S
C1103      C1104   1.413       .  A
C1103      C1108   1.403       .  A
C1103      F1110   1.357       .  S
C1104      C1105   1.408       .  A
C1105      C1106   1.396       .  A
C1105      F1112   1.354       .  S
C1106      C1107   1.406       .  A
C1106      F1111   1.358       .  S
C1107      C1108   1.404       .  A
C1108      F1109   1.358       .  S
C1113      C1114   1.407       .  A
C1113      C1118   1.410       .  A
C1113      F1120   1.357       .  S
C1114      C1115   1.414       .  A
C1115      C1116   1.391       .  A
C1115      F1122   1.356       .  S
C1116      C1117   1.407       .  A
C1116      F1121   1.358       .  S
C1117      C1118   1.418       .  A
C1118      F1119   1.357       .  S
C1123      C1124   1.409       .  A
C1123      C1128   1.408   1_556  A
C1123      F1130   1.357       .  S
C1124      C1125   1.414   1_556  A
C1125      C1126   1.392       .  A
C1125      F1132   1.357       .  S
C1126      C1127   1.408       .  A
C1126      F1131   1.358       .  S
C1127      C1128   1.416       .  A
C1128      F1129   1.358       .  S
C1133      C1134   1.406       .  A
C1133      C1138   1.391       .  A
C1133      F1140   1.359       .  S
C1134      C1135   1.409       .  A
C1135      C1136   1.406       .  A
C1135      F1142   1.357       .  S
C1136      C1137   1.405       .  A
C1136      F1141   1.357       .  S
C1137      C1138   1.403       .  A
C1138      F1139   1.359       .  S
C1143      C1144   1.406       .  A
C1143      C1148   1.406       .  A
C1143      F1150   1.358       .  S
C1144      C1145   1.404       .  A
C1145      C1146   1.392   1_545  A
C1145      F1152   1.359       .  S
C1146      C1147   1.403       .  A
C1146      F1151   1.358       .  S
C1147      C1148   1.407   1_565  A
C1148      F1149   1.357   1_545  S
