geometry optimzed in LAMMPS
_audit_creation_date              2020-11-30 
_audit_creation_method            'lammps2cif' 
_symmetry_space_group_name_H-M    'P1' 
_symmetry_Int_Tables_number       1 
_symmetry_cell_setting            triclinic 
loop_ 
_symmetry_equiv_pos_as_xyz 
  x,y,z 
_cell_length_a                    42.06363539 
_cell_length_b                    42.0465341868651 
_cell_length_c                    70.35244747866598 
_cell_angle_alpha                 90.17909530056278 
_cell_angle_beta                  89.88721770750536 
_cell_angle_gamma                 90.67624736721389 
loop_ 
_atom_site_label 
_atom_site_type_symbol 
_atom_site_fract_x 
_atom_site_fract_y 
_atom_site_fract_z 
_atom_site_charge 
N1          N  0.99258001  0.68493842  0.02428268    -0.25500
N2          N  0.00091860  0.65804246  0.03252115    -0.33400
C3          C  0.00401331  0.66275259  0.05129559     0.02800
C4          C  0.99709547  0.69406433  0.05530159     0.08800
C5          C  0.98961694  0.70746105  0.03789166    -0.04300
H6          H  0.01045561  0.64448497  0.06132946     0.09500
H7          H  0.98331090  0.73192443  0.03526620     0.10700
Cu8        Cu  0.00734739  0.61517479  0.01883338     0.44200
Cu9        Cu  0.98813879  0.68958750  0.99466373     0.42000
Cu10       Cu  0.00954987  0.61643714  0.96907250     0.43900
N11         N  0.01122831  0.57419149  0.00291910    -0.32900
N12         N  0.01235820  0.57463163  0.98418938    -0.27200
C13         C  0.01339746  0.54459736  0.97765100    -0.03300
C14         C  0.01275980  0.52429607  0.99306871     0.09000
C15         C  0.01146202  0.54389772  0.00891706     0.02800
H16         H  0.01374480  0.53800555  0.96277331     0.10400
H17         H  0.01015159  0.53689385  0.02367485     0.09500
N18         N  0.00075440  0.65947216  0.95622209    -0.34400
N19         N  0.99142678  0.68573117  0.96492426    -0.26500
C20         C  0.98605413  0.70812753  0.95160280    -0.01800
C21         C  0.99293394  0.69532265  0.93387449     0.06800
C22         C  0.00206669  0.66449569  0.93743028     0.04900
H23         H  0.97822275  0.73204129  0.95460434     0.10000
H24         H  0.00846488  0.64660853  0.92706167     0.08900
N25         N  0.69196783  0.99432752  0.03302895    -0.25500
N26         N  0.66924793  0.97935730  0.04264195    -0.33400
C27         C  0.67617339  0.98016675  0.06124041     0.02800
C28         C  0.70453174  0.99658063  0.06364553     0.08800
C29         C  0.71381259  0.00550224  0.04549105    -0.04300
H30         H  0.66141493  0.96969205  0.07222822     0.09500
H31         H  0.73533458  0.01823654  0.04158242     0.10700
Cu32       Cu  0.62875117  0.95887043  0.03105422     0.44200
Cu33       Cu  0.69310515  0.99636233  0.00326834     0.42000
Cu34       Cu  0.62371913  0.95855427  0.98112553     0.43900
N35         N  0.58799664  0.94455115  0.01690864    -0.32900
N36         N  0.58606436  0.94475371  0.99819590    -0.27200
C37         C  0.55619197  0.93716703  0.99299830    -0.03300
C38         C  0.53841127  0.93195825  0.00933351     0.09000
C39         C  0.55937630  0.93683477  0.02420858     0.02800
H40         H  0.54788520  0.93704339  0.97846303     0.10400
H41         H  0.55385512  0.93635293  0.03923382     0.09500
N42         N  0.66345680  0.97399380  0.96635275    -0.34400
N43         N  0.68835489  0.98874266  0.97394020    -0.26500
C44         C  0.70916762  0.99589636  0.95990831    -0.01800
C45         C  0.69687613  0.98460854  0.94285572     0.06800
C46         C  0.66787041  0.97097934  0.94753976     0.04900
H47         H  0.73178861  0.00789904  0.96199637     0.10000
H48         H  0.65085071  0.96006877  0.93794978     0.08900
N49         N  0.78193024  0.48585175  0.52991816    -0.25500
N50         N  0.81010766  0.48285677  0.53804493    -0.33400
C51         C  0.80627364  0.48063380  0.55697109     0.02800
C52         C  0.77421975  0.48269879  0.56113758     0.08800
C53         C  0.75947307  0.48624131  0.54366576    -0.04300
H54         H  0.82559788  0.47884252  0.56702412     0.09500
H55         H  0.73428182  0.48888621  0.54113981     0.10700
Cu56       Cu  0.85344751  0.48494890  0.52386942     0.44200
Cu57       Cu  0.77563607  0.48954108  0.50038714     0.42000
Cu58       Cu  0.84914285  0.50824589  0.47550536     0.43900
N59         N  0.89356864  0.49219316  0.50711799    -0.32900
N60         N  0.89174782  0.50143502  0.48924153    -0.27200
C61         C  0.92117372  0.50365157  0.48186895    -0.03300
C62         C  0.94267876  0.49549901  0.49577747     0.09000
C63         C  0.92434702  0.48838158  0.51167828     0.02800
H64         H  0.92648493  0.51022313  0.46733753     0.10400
H65         H  0.93254289  0.48072055  0.52546404     0.09500
N66         N  0.80553960  0.50449354  0.46233436    -0.34400
N67         N  0.77882247  0.49553121  0.47081370    -0.26500
C68         C  0.75633221  0.49097522  0.45735556    -0.01800
C69         C  0.76957530  0.49807819  0.43975729     0.06800
C70         C  0.80074127  0.50654098  0.44353830     0.04900
H71         H  0.73230973  0.48274045  0.46012688     0.10000
H72         H  0.81919055  0.51194502  0.43326553     0.08900
N73         N  0.50754701  0.77290893  0.52383419    -0.25500
N74         N  0.50761736  0.80103041  0.53233695    -0.33400
C75         C  0.50729736  0.79688245  0.55124005     0.02800
C76         C  0.50746236  0.76464000  0.55491117     0.08800
C77         C  0.50785289  0.75006727  0.53724586    -0.04300
H78         H  0.50798298  0.81601967  0.56155458     0.09500
H79         H  0.50813534  0.72478648  0.53435133     0.10700
Cu80       Cu  0.51123469  0.84437458  0.51863527     0.44200
Cu81       Cu  0.50697226  0.76725224  0.49438367     0.42000
Cu82       Cu  0.52270382  0.84147735  0.46888387     0.43900
N83         N  0.51916231  0.88480325  0.50256720    -0.32900
N84         N  0.52359426  0.88370976  0.48400188    -0.27200
C85         C  0.52731966  0.91349513  0.47739527    -0.03300
C86         C  0.52533744  0.93434254  0.49257727     0.09000
C87         C  0.52014854  0.91529951  0.50836576     0.02800
H88         H  0.53076148  0.91955800  0.46259206     0.10400
H89         H  0.51667096  0.92288122  0.52291556     0.09500
N90         N  0.51596570  0.79768541  0.45597723    -0.34400
N91         N  0.50871912  0.77086139  0.46485719    -0.26500
C92         C  0.50394994  0.74777138  0.45176899    -0.01800
C93         C  0.50909911  0.76072320  0.43394258     0.06800
C94         C  0.51659500  0.79234283  0.43718735     0.04900
H95         H  0.49781568  0.72332009  0.45500699     0.10000
H96         H  0.52150152  0.81041414  0.42663028     0.08900
N97         N  0.49420686  0.18150838  0.53541182    -0.25500
N98         N  0.50774097  0.15689075  0.54367022    -0.33400
C99         C  0.50941138  0.16206679  0.56247519     0.02800
C100        C  0.49605785  0.19121977  0.56644291     0.08800
C101        C  0.48642725  0.20285251  0.54898029    -0.04300
H102        H  0.51876467  0.14526816  0.57258794     0.09500
H103        H  0.47493969  0.22528448  0.54631924     0.10700
Cu104      Cu  0.52074470  0.11536076  0.53004082     0.44200
Cu105      Cu  0.48817138  0.18482591  0.50591552     0.42000
Cu106      Cu  0.51155878  0.11286626  0.48021619     0.43900
N107        N  0.52475752  0.07367870  0.51459372    -0.32900
N108        N  0.52105684  0.07269045  0.49597870    -0.27200
C109        C  0.52224534  0.04227982  0.49007202    -0.03300
C110        C  0.52684527  0.02317833  0.50584015     0.09000
C111        C  0.52832688  0.04391371  0.52111437     0.02800
H112        H  0.51873126  0.03473574  0.47551122     0.10400
H113        H  0.53063295  0.03771725  0.53595954     0.09500
N114        N  0.50013426  0.15531505  0.46728226    -0.34400
N115        N  0.49039812  0.18119797  0.47621542    -0.26500
C116        C  0.48464451  0.20387060  0.46315111    -0.01800
C117        C  0.49170160  0.19171843  0.44530966     0.06800
C118        C  0.50134322  0.16091202  0.44852195     0.04900
H119        H  0.47690255  0.22771305  0.46643533     0.10000
H120        H  0.50859964  0.14366258  0.43797514     0.08900
N121        N  0.19220455  0.48431409  0.47037756    -0.25500
N122        N  0.16448638  0.48991170  0.46223899    -0.33400
C123        C  0.16855797  0.49119015  0.44329883     0.02800
C124        C  0.20023441  0.48571545  0.43925783     0.08800
C125        C  0.21450060  0.48125299  0.45672899    -0.04300
H126        H  0.14953637  0.49436341  0.43317518     0.09500
H127        H  0.23919868  0.47587085  0.45932875     0.10700
Cu128      Cu  0.12124695  0.49143469  0.47654214     0.44200
Cu129      Cu  0.19831023  0.47970861  0.49962364     0.42000
Cu130      Cu  0.12461916  0.46440916  0.52455340     0.43900
N131        N  0.08106674  0.48548119  0.49344936    -0.32900
N132        N  0.08254673  0.47488523  0.51107479    -0.27200
C133        C  0.05309452  0.47336065  0.51844708    -0.03300
C134        C  0.03191425  0.48333540  0.50481052     0.09000
C135        C  0.05045768  0.49086165  0.48906586     0.02800
H136        H  0.04752838  0.46568395  0.53274985     0.10400
H137        H  0.04249569  0.49959523  0.47546266     0.09500
N138        N  0.16864504  0.46370970  0.53736260    -0.34400
N139        N  0.19559482  0.47148555  0.52876434    -0.26500
C140        C  0.21898595  0.47273638  0.54183197    -0.01800
C141        C  0.20607001  0.46465642  0.55930678     0.06800
C142        C  0.17415264  0.45912936  0.55592085     0.04900
H143        H  0.24345906  0.47921254  0.53886077     0.10000
H144        H  0.15590198  0.45387632  0.56634546     0.08900
N145        N  0.74337436  0.02686133  0.79576141    -0.25500
N146        N  0.74166114  0.04061140  0.81270373    -0.33400
C147        C  0.74320987  0.07239025  0.81057112     0.02800
C148        C  0.74607023  0.07903238  0.79145877     0.08800
C149        C  0.74610911  0.04974459  0.78242250    -0.04300
H150        H  0.74207844  0.08940330  0.82211731     0.09500
H151        H  0.74776987  0.04536763  0.76729224     0.10700
Cu152      Cu  0.73640562  0.01651550  0.83831982     0.44200
Cu153      Cu  0.74138253  0.97748685  0.79145559     0.42000
Cu154      Cu  0.72827340  0.93187349  0.83440750     0.43900
N155        N  0.72791371  0.98738388  0.86165542    -0.32900
N156        N  0.72395516  0.95627075  0.85998328    -0.27200
C157        C  0.71586110  0.94416902  0.87700716    -0.03300
C158        C  0.71509561  0.96870700  0.89011454     0.09000
C159        C  0.72286676  0.99586332  0.87990445     0.02800
H160        H  0.71012822  0.91939207  0.87955986     0.10400
H161        H  0.72311117  0.02011465  0.88509041     0.09500
N162        N  0.73369479  0.91133778  0.80772076    -0.34400
N163        N  0.73845746  0.92766466  0.79189035    -0.26500
C164        C  0.74106608  0.90698636  0.77725147    -0.01800
C165        C  0.73777219  0.87639667  0.78432292     0.06800
C166        C  0.73317287  0.88005385  0.80362300     0.04900
H167        H  0.74517710  0.91371415  0.76261260     0.10000
H168        H  0.72979626  0.86134220  0.81398230     0.08900
O169        O  0.79060163  0.24089664  0.78093867    -0.71200
O170        O  0.69967734  0.23421333  0.76326258    -0.72200
O171        O  0.74297553  0.19212057  0.78126534    -0.60800
O172        O  0.74732578  0.28304898  0.76280413    -0.69200
O173        O  0.76399282  0.26590686  0.73464623    -0.68700
O174        O  0.75962228  0.17518859  0.75305435    -0.60000
O175        O  0.71633475  0.21723936  0.73505620    -0.72500
O176        O  0.80730358  0.22389845  0.75274817    -0.71300
Cu177      Cu  0.74458001  0.23815988  0.77306486     1.04600
Cu178      Cu  0.76239503  0.21998382  0.74289031     1.04300
C179        C  0.81314750  0.23330056  0.76967853     0.95000
C180        C  0.69380331  0.22476933  0.74635001     0.94200
C181        C  0.75063946  0.16946328  0.77006696     0.86300
C182        C  0.75623296  0.28864300  0.74574732     0.92600
O183        O  0.73340599  0.76514765  0.77045075    -0.71200
O184        O  0.73892937  0.67471102  0.75149628    -0.72200
O185        O  0.78122827  0.71772038  0.77082182    -0.60800
O186        O  0.69138328  0.72212372  0.75098969    -0.69200
O187        O  0.70995341  0.73975627  0.72332877    -0.68700
O188        O  0.79953236  0.73529965  0.74309355    -0.60000
O189        O  0.75730398  0.69218242  0.72376551    -0.72500
O190        O  0.75182255  0.78292176  0.74280152    -0.71300
Cu191      Cu  0.73562276  0.71933612  0.76192125     1.04600
Cu192      Cu  0.75531284  0.73816490  0.73228529     1.04300
C193        C  0.74183891  0.78817015  0.75968378     0.95000
C194        C  0.74855969  0.66930007  0.73457765     0.94200
C195        C  0.80441615  0.72597080  0.76008143     0.86300
C196        C  0.68671287  0.73129827  0.73393662     0.92600
N197        N  0.94658601  0.72246869  0.78612090    -0.25500
N198        N  0.93337732  0.72581607  0.80312692    -0.33400
C199        C  0.90161140  0.72735827  0.80112703     0.02800
C200        C  0.89446498  0.72488030  0.78205268     0.08800
C201        C  0.92339640  0.72182568  0.77290034    -0.04300
H202        H  0.88494076  0.72975876  0.81276167     0.09500
H203        H  0.92732570  0.71909034  0.75778301     0.10700
Cu204      Cu  0.95795142  0.72684095  0.82881522     0.44200
Cu205      Cu  0.99554455  0.71829096  0.78136957     0.42000
Cu206      Cu  0.04150585  0.71530214  0.82443817     0.43900
N207        N  0.98758239  0.72220086  0.85229705    -0.32900
N208        N  0.01835015  0.71706322  0.85038037    -0.27200
C209        C  0.03085625  0.71088207  0.86749718    -0.03300
C210        C  0.00700385  0.71253697  0.88095792     0.09000
C211        C  0.97975330  0.71980248  0.87085439     0.02800
H212        H  0.05525409  0.70405073  0.86984492     0.10400
H213        H  0.95573326  0.72076917  0.87633372     0.09500
N214        N  0.06156865  0.71362478  0.79759579    -0.34400
N215        N  0.04514596  0.71468102  0.78159615    -0.26500
C216        C  0.06565671  0.71349612  0.76682065    -0.01800
C217        C  0.09619082  0.71156940  0.77405130     0.06800
C218        C  0.09271036  0.71174285  0.79352172     0.04900
H219        H  0.05887619  0.71426138  0.75200407     0.10000
H220        H  0.11145686  0.71085110  0.80401128     0.08900
O221        O  0.24075989  0.76929711  0.73729808    -0.71200
O222        O  0.23775251  0.67881826  0.71754290    -0.72200
O223        O  0.19282694  0.72091079  0.73479809    -0.60800
O224        O  0.28520983  0.72744838  0.72003355    -0.69200
O225        O  0.29933640  0.70967563  0.74847061    -0.68700
O226        O  0.20693704  0.70321591  0.76324448    -0.60000
O227        O  0.25175323  0.66129982  0.74604223    -0.72500
O228        O  0.25483910  0.75137059  0.76569371    -0.71300
Cu229      Cu  0.23861606  0.72470651  0.72640240     1.04600
Cu230      Cu  0.25364387  0.70574609  0.75684915     1.04300
C231        C  0.24837753  0.77441910  0.75462727     0.95000
C232        C  0.24468812  0.65594989  0.72867439     0.94200
C233        C  0.18545985  0.71136190  0.75146544     0.86300
C234        C  0.30667058  0.71962987  0.73189034     0.92600
N235        N  0.95485002  0.23301996  0.79673517    -0.25500
N236        N  0.94085098  0.23854460  0.81325752    -0.33400
C237        C  0.90930703  0.24082743  0.81059809     0.02800
C238        C  0.90312486  0.23655253  0.79151626     0.08800
C239        C  0.93240899  0.23161555  0.78307529    -0.04300
H240        H  0.89213072  0.24481441  0.82179939     0.09500
H241        H  0.93703903  0.22695975  0.76819807     0.10700
Cu242      Cu  0.96482894  0.24148517  0.83889087     0.44200
Cu243      Cu  0.00390708  0.22700698  0.79404366     0.42000
Cu244      Cu  0.04811342  0.22434692  0.83903426     0.43900
N245        N  0.99233863  0.24190638  0.86325983    -0.32900
N246        N  0.02277600  0.23449568  0.86359041    -0.27200
C247        C  0.03389361  0.23847489  0.88140353    -0.03300
C248        C  0.00918076  0.24916194  0.89269439     0.09000
C249        C  0.98333716  0.25116515  0.88071810     0.02800
H250        H  0.05851739  0.23594113  0.88548313     0.10400
H251        H  0.95997590  0.25993320  0.88426602     0.09500
N252        N  0.06884294  0.22104529  0.81231905    -0.34400
N253        N  0.05320844  0.22228111  0.79601363    -0.26500
C254        C  0.07435263  0.22101816  0.78159926    -0.01800
C255        C  0.10447018  0.21892050  0.78929587     0.06800
C256        C  0.10015908  0.21900888  0.80871682     0.04900
H257        H  0.06826584  0.22208476  0.76668175     0.10000
H258        H  0.11846763  0.21828502  0.81948507     0.08900
O259        O  0.19899574  0.20841720  0.74874713    -0.71200
O260        O  0.28998678  0.20465359  0.73091760    -0.72200
O261        O  0.24670346  0.16097267  0.74854613    -0.60800
O262        O  0.24231678  0.25207351  0.73110507    -0.69200
O263        O  0.25887565  0.26873557  0.75943975    -0.68700
O264        O  0.26322726  0.17755721  0.77690596    -0.60000
O265        O  0.30650563  0.22122272  0.75928832    -0.72500
O266        O  0.21565816  0.22502183  0.77707998    -0.71300
Cu267      Cu  0.24393370  0.20595377  0.73882537     1.04600
Cu268      Cu  0.26163605  0.22369640  0.76917394     1.04300
C269        C  0.19315149  0.21717194  0.76578543     0.95000
C270        C  0.31243490  0.21253514  0.74225598     0.94200
C271        C  0.25549606  0.15504217  0.76552261     0.86300
C272        C  0.25002574  0.27462873  0.74246685     0.92600
N273        N  0.25549097  0.01248741  0.79115716    -0.25500
N274        N  0.25347342  0.02617416  0.80810607    -0.33400
C275        C  0.25364182  0.05796186  0.80594223     0.02800
C276        C  0.25585527  0.06463273  0.78680615     0.08800
C277        C  0.25697271  0.03539302  0.77778589    -0.04300
H278        H  0.25222605  0.07494720  0.81749033     0.14300
H279        H  0.25860450  0.03104813  0.76265094     0.10700
Cu280      Cu  0.25101855  0.00202203  0.83384358     0.44200
Cu281      Cu  0.25574017  0.96321100  0.78680681     0.42000
Cu282      Cu  0.25264638  0.91729941  0.83019642     0.43900
N283        N  0.25287700  0.97265139  0.85753035    -0.32900
N284        N  0.25409676  0.94135980  0.85599278    -0.27200
C285        C  0.25920730  0.92886093  0.87325982    -0.03300
C286        C  0.26111205  0.95335310  0.88637803     0.09000
C287        C  0.25690209  0.98089329  0.87592032     0.02800
H288        H  0.26301570  0.90386133  0.87591844     0.10400
H289        H  0.25901420  0.00512654  0.88101541     0.09500
N290        N  0.25271879  0.89699844  0.80326669    -0.34400
N291        N  0.25405101  0.91345152  0.78727088    -0.26500
C292        C  0.25365846  0.89291934  0.77247565    -0.01800
C293        C  0.25199241  0.86229594  0.77963078     0.06800
C294        C  0.25144532  0.86575727  0.79912605     0.04900
H295        H  0.25437837  0.89978129  0.75767055     0.10000
H296        H  0.25014124  0.84695775  0.80957687     0.08900
N297        N  0.25080315  0.51259580  0.70456771    -0.25500
N298        N  0.24850585  0.52490187  0.68731997    -0.33400
C299        C  0.24701488  0.55677823  0.68869982     0.02800
C300        C  0.24848871  0.56503276  0.70765912     0.08800
C301        C  0.25093234  0.53657202  0.71737609    -0.04300
H302        H  0.24444830  0.57270118  0.67676154     0.09500
H303        H  0.25205871  0.53346458  0.73261909     0.10700
Cu304      Cu  0.24535566  0.49853243  0.66240867     0.44200
Cu305      Cu  0.25146091  0.46348237  0.70986890     0.42000
Cu306      Cu  0.23358951  0.41510572  0.66807146     0.43900
N307        N  0.23691251  0.46810163  0.63969068    -0.32900
N308        N  0.23111231  0.43740537  0.64196065    -0.27200
C309        C  0.22281384  0.42457814  0.62513533    -0.03300
C310        C  0.22393414  0.44825097  0.61157031     0.09000
C311        C  0.23295059  0.47559555  0.62127098     0.02800
H312        H  0.21552479  0.40005112  0.62305161     0.10400
H313        H  0.23441520  0.49948709  0.61564497     0.09500
N314        N  0.24058297  0.39661386  0.69493704    -0.34400
N315        N  0.24763111  0.41364948  0.71025284    -0.26500
C316        C  0.25129816  0.39362670  0.72505214    -0.01800
C317        C  0.24622819  0.36281762  0.71857520     0.06800
C318        C  0.23953861  0.36561853  0.69951096     0.04900
H319        H  0.25725107  0.40093760  0.73938010     0.10000
H320        H  0.23452709  0.34649600  0.68959161     0.08900
N321        N  0.45404694  0.21845957  0.71501429    -0.25500
N322        N  0.43965492  0.21989902  0.69829214    -0.33400
C323        C  0.40802241  0.21798404  0.70096354     0.02800
C324        C  0.40220743  0.21522177  0.72017045     0.08800
C325        C  0.43175378  0.21562816  0.72873131    -0.04300
H326        H  0.39055689  0.21853264  0.68970142     0.09500
H327        H  0.43672667  0.21402087  0.74377908     0.10700
Cu328      Cu  0.46232606  0.22339160  0.67204703     0.44200
Cu329      Cu  0.50335098  0.22002648  0.71875438     0.42000
Cu330      Cu  0.54669072  0.22190091  0.67464144     0.43900
N331        N  0.49088735  0.22118251  0.64791809    -0.32900
N332        N  0.52216613  0.21983187  0.64921001    -0.27200
C333        C  0.53443589  0.21395719  0.63194659    -0.03300
C334        C  0.50984325  0.21182098  0.61903159     0.09000
C335        C  0.48241409  0.21658734  0.62961041     0.02800
H336        H  0.55935818  0.20980341  0.62917375     0.10400
H337        H  0.45814358  0.21429491  0.62468416     0.09500
N338        N  0.56849999  0.22184472  0.70096041    -0.34400
N339        N  0.55299118  0.22110953  0.71733109    -0.26500
C340        C  0.57437831  0.22102283  0.73161174    -0.01800
C341        C  0.60454007  0.22169436  0.72368037     0.06800
C342        C  0.59994474  0.22221669  0.70430372     0.04900
H343        H  0.56841628  0.22050802  0.74657530     0.10000
H344        H  0.61810246  0.22281384  0.69338992     0.08900
N345        N  0.44835962  0.72873143  0.70501635    -0.25500
N346        N  0.43316642  0.73244866  0.68875179    -0.33400
C347        C  0.40168347  0.73156181  0.69192701     0.02800
C348        C  0.39677911  0.72709574  0.71108931     0.08800
C349        C  0.42674243  0.72537016  0.71907684    -0.04300
H350        H  0.38372682  0.73374222  0.68103006     0.09500
H351        H  0.43242138  0.72173070  0.73389798     0.10700
Cu352      Cu  0.45544780  0.73773624  0.66280493     0.44200
Cu353      Cu  0.49783241  0.72806329  0.70658888     0.42000
Cu354      Cu  0.53994632  0.72985950  0.66042346     0.43900
N355        N  0.48078982  0.74086088  0.63775550    -0.32900
N356        N  0.51178046  0.73650321  0.63646917    -0.27200
C357        C  0.52088042  0.74123918  0.61829759    -0.03300
C358        C  0.49425496  0.74928710  0.60786030     0.09000
C359        C  0.46942718  0.74907733  0.62067094     0.02800
H360        H  0.54527748  0.74131213  0.61339689     0.10400
H361        H  0.44506504  0.75564276  0.61794839     0.09500
N362        N  0.56218765  0.72901086  0.68687463    -0.34400
N363        N  0.54715123  0.72855343  0.70344810    -0.26500
C364        C  0.56883173  0.72904710  0.71752707    -0.01800
C365        C  0.59873710  0.72990991  0.70940614     0.06800
C366        C  0.59374746  0.72985964  0.69002448     0.04900
H367        H  0.56318685  0.72900728  0.73253822     0.10000
H368        H  0.61170044  0.73065888  0.67899471     0.08900
N369        N  0.74805177  0.52631122  0.70909324    -0.25500
N370        N  0.74194482  0.53905505  0.69229540    -0.33400
C371        C  0.74059915  0.57089766  0.69421864     0.02800
C372        C  0.74615992  0.57858599  0.71302015     0.08800
C373        C  0.75076253  0.54986315  0.72208466    -0.04300
H374        H  0.73659273  0.58728287  0.68266282     0.09500
H375        H  0.75611981  0.54633609  0.73696008     0.10700
Cu376      Cu  0.73861097  0.51375542  0.66677554     0.44200
Cu377      Cu  0.75344407  0.47746656  0.71376229     0.42000
Cu378      Cu  0.75710106  0.43121760  0.67063972     0.43900
N379        N  0.74614153  0.48481282  0.64308102    -0.32900
N380        N  0.75454932  0.45476785  0.64479608    -0.27200
C381        C  0.76317446  0.44353135  0.62766113    -0.03300
C382        C  0.75959183  0.46736593  0.61438289     0.09000
C383        C  0.74865973  0.49329790  0.62463970     0.02800
H384        H  0.77287203  0.42015390  0.62519722     0.10400
H385        H  0.74552294  0.51721831  0.61939998     0.09500
N386        N  0.75803360  0.41116192  0.69756113    -0.34400
N387        N  0.75679654  0.42779850  0.71353775    -0.26500
C388        C  0.75698154  0.40744432  0.72835344    -0.01800
C389        C  0.75838511  0.37672946  0.72122505     0.06800
C390        C  0.75900514  0.37998348  0.70172427     0.04900
H391        H  0.75567566  0.41445146  0.74314240     0.10000
H392        H  0.75963929  0.36105524  0.69127932     0.08900
N393        N  0.30121773  0.98617707  0.02782541    -0.25500
N394        N  0.32506247  0.97189282  0.03641404    -0.33400
C395        C  0.32091945  0.97333500  0.05527473     0.02800
C396        C  0.29315519  0.98937433  0.05902567     0.08800
C397        C  0.28132400  0.99753077  0.04129671    -0.04300
H398        H  0.33711790  0.96336287  0.06552502     0.09500
H399        H  0.25936186  0.00972724  0.03840791     0.10700
Cu400      Cu  0.36305209  0.95065249  0.02317505     0.44200
Cu401      Cu  0.29635470  0.98620522  0.99809838     0.42000
Cu402      Cu  0.35824130  0.93876364  0.97414845     0.43900
N403        N  0.40100236  0.93409189  0.00767498    -0.32900
N404        N  0.39933373  0.92958464  0.98914804    -0.27200
C405        C  0.42853896  0.92319063  0.98244970    -0.03300
C406        C  0.44960233  0.92382903  0.99753707     0.09000
C407        C  0.43122693  0.93069015  0.01337253     0.02800
H408        H  0.43440294  0.92062547  0.96754607     0.10400
H409        H  0.43936259  0.93529652  0.02769916     0.09500
N410        N  0.31817904  0.95632673  0.96099331    -0.34400
N411        N  0.29672820  0.97496411  0.96896061    -0.26500
C412        C  0.27577013  0.98368538  0.95547007    -0.01800
C413        C  0.28421370  0.96934589  0.93843114     0.06800
C414        C  0.31121171  0.95230142  0.94253091     0.04900
H415        H  0.25573026  0.99907634  0.95790766     0.10000
H416        H  0.32552326  0.93878620  0.93267082     0.08900
N417        N  0.03667940  0.27697055  0.97508241    -0.25500
N418        N  0.02746965  0.30362294  0.96692529    -0.33400
C419        C  0.02481016  0.29902344  0.94814238     0.02800
C420        C  0.03281933  0.26800553  0.94408039     0.08800
C421        C  0.04056611  0.25468514  0.96144198    -0.04300
H422        H  0.01745198  0.31705221  0.93818674     0.09500
H423        H  0.04723493  0.23031619  0.96404829     0.10700
Cu424      Cu  0.01821977  0.34571156  0.98076683     0.44200
Cu425      Cu  0.03987931  0.27194265  0.00458987     0.42000
Cu426      Cu  0.01357964  0.34345868  0.03038127     0.43900
N427        N  0.01220389  0.38622004  0.99677516    -0.32900
N428        N  0.01040094  0.38552684  0.01548154    -0.27200
C429        C  0.00855743  0.41547602  0.02210696    -0.03300
C430        C  0.00935022  0.43595320  0.00676004     0.09000
C431        C  0.01157956  0.41653923  0.99087476     0.02800
H432        H  0.00767834  0.42191285  0.03699994     0.10400
H433        H  0.01349894  0.42369285  0.97616554     0.09500
N434        N  0.02200674  0.29990911  0.04280204    -0.34400
N435        N  0.03311669  0.27443292  0.03403269    -0.26500
C436        C  0.03728729  0.25130854  0.04703153    -0.01800
C437        C  0.02776294  0.26274969  0.06461295     0.06800
C438        C  0.01832019  0.29358623  0.06134972     0.04900
H439        H  0.04601760  0.22777491  0.04386730     0.10000
H440        H  0.01005122  0.31057134  0.07177625     0.08900
N441        N  0.96749066  0.73424576  0.20335641    -0.25500
N442        N  0.95267644  0.73474265  0.18676514    -0.33400
C443        C  0.92108881  0.73452883  0.18979286     0.02800
C444        C  0.91579878  0.73389119  0.20913708     0.08800
C445        C  0.94559025  0.73374787  0.21737361    -0.04300
H446        H  0.90331429  0.73439460  0.17869444     0.09500
H447        H  0.95098889  0.73297791  0.23239423     0.10700
Cu448      Cu  0.97524784  0.73376001  0.16047365     0.44200
Cu449      Cu  0.01680982  0.73318070  0.20624494     0.42000
Cu450      Cu  0.05975212  0.72380205  0.16191158     0.43900
N451        N  0.00244046  0.72600905  0.13626301    -0.32900
N452        N  0.03337233  0.72097132  0.13699837    -0.27200
C453        C  0.04364094  0.71241574  0.11962798    -0.03300
C454        C  0.01810638  0.71256736  0.10728535     0.09000
C455        C  0.99229186  0.72131102  0.11830046     0.02800
H456        H  0.06773435  0.70547055  0.11636396     0.10400
H457        H  0.96767094  0.72197569  0.11391492     0.09500
N458        N  0.08173640  0.72776302  0.18825916    -0.34400
N459        N  0.06624624  0.73117407  0.20451946    -0.26500
C460        C  0.08751907  0.73301356  0.21881008    -0.01800
C461        C  0.11765019  0.73065829  0.21107959     0.06800
C462        C  0.11316772  0.72737091  0.19174947     0.04900
H463        H  0.08147596  0.73586963  0.23366861     0.10000
H464        H  0.13138375  0.72488188  0.18098383     0.08900
O465        O  0.30166060  0.74103953  0.27177084    -0.71200
O466        O  0.21127298  0.74018485  0.25247573    -0.72200
O467        O  0.25141808  0.69485206  0.27007536    -0.60800
O468        O  0.26115165  0.78652185  0.25432584    -0.69200
O469        O  0.27829193  0.77096560  0.22593664    -0.68700
O470        O  0.26853604  0.67897444  0.24174520    -0.60000
O471        O  0.22862734  0.72449281  0.22415264    -0.72500
O472        O  0.31864485  0.72536176  0.24336787    -0.71300
Cu473      Cu  0.25583172  0.74118650  0.26317231     1.04600
Cu474      Cu  0.27416770  0.72441595  0.23281580     1.04300
C475        C  0.32426940  0.73329343  0.26057367     0.95000
C476        C  0.20589245  0.73219521  0.23523027     0.94200
C477        C  0.25817932  0.67259097  0.25840810     0.86300
C478        C  0.27093462  0.79309915  0.23758755     0.92600
O479        O  0.71317853  0.73002125  0.23773024    -0.71200
O480        O  0.80410986  0.72614241  0.22037995    -0.72200
O481        O  0.75959950  0.68142777  0.23611275    -0.60800
O482        O  0.75758004  0.77458803  0.22238569    -0.69200
O483        O  0.77386575  0.78749891  0.25145883    -0.68700
O484        O  0.77604436  0.69475170  0.26508397    -0.60000
O485        O  0.82064750  0.73927629  0.24936725    -0.72500
O486        O  0.72937889  0.74300786  0.26681325    -0.71300
Cu487      Cu  0.75810400  0.72757000  0.22812224     1.04600
Cu488      Cu  0.77559445  0.74153424  0.25920147     1.04300
C489        C  0.70703875  0.73717422  0.25497472     0.95000
C490        C  0.82657281  0.73240668  0.23202648     0.94200
C491        C  0.76779458  0.67362116  0.25292989     0.86300
C492        C  0.76527703  0.79556801  0.23478943     0.92600
N493        N  0.75719765  0.03808007  0.21045751    -0.25500
N494        N  0.75561664  0.05343873  0.19404893    -0.33400
C495        C  0.75508378  0.08493558  0.19751955     0.02800
C496        C  0.75636714  0.08961949  0.21691861     0.08800
C497        C  0.75771468  0.05956235  0.22473071    -0.04300
H498        H  0.75371386  0.10306949  0.18668209     0.09500
H499        H  0.75893118  0.05368595  0.23967162     0.10700
Cu500      Cu  0.75331207  0.03217438  0.16723759     0.44200
Cu501      Cu  0.75853178  0.98856297  0.21329777     0.42000
Cu502      Cu  0.75567110  0.94776862  0.16867530     0.43900
N503        N  0.74752515  0.00406317  0.14299745    -0.32900
N504        N  0.74799182  0.97270924  0.14398827    -0.27200
C505        C  0.73964084  0.96029400  0.12712059    -0.03300
C506        C  0.73392061  0.98487895  0.11472048     0.09000
C507        C  0.73918394  0.01247750  0.12519917     0.02800
H508        H  0.73631955  0.93513675  0.12437679     0.10400
H509        H  0.73490200  0.03662227  0.12068739     0.09500
N510        N  0.75944437  0.92452192  0.19427669    -0.34400
N511        N  0.76016176  0.93898889  0.21098501    -0.26500
C512        C  0.76184494  0.91667965  0.22470678    -0.01800
C513        C  0.76219223  0.88706921  0.21599105     0.06800
C514        C  0.76064011  0.89292942  0.19679139     0.04900
H515        H  0.76261934  0.92163007  0.23980037     0.10000
H516        H  0.76014039  0.87551742  0.18543333     0.08900
O517        O  0.74986567  0.20082648  0.23175326    -0.71200
O518        O  0.75580111  0.28990491  0.25262290    -0.72200
O519        O  0.79850000  0.24820173  0.23310869    -0.60800
O520        O  0.70735269  0.24234142  0.25137115    -0.69200
O521        O  0.72404270  0.22330947  0.27897194    -0.68700
O522        O  0.81507505  0.22926345  0.26075559    -0.60000
O523        O  0.77236882  0.27110443  0.28031730    -0.72500
O524        O  0.76652923  0.18166907  0.25933982    -0.71300
Cu525      Cu  0.75233252  0.24599496  0.24125358     1.04600
Cu526      Cu  0.77010160  0.22568781  0.27082018     1.04300
C527        C  0.75753389  0.17734267  0.24217811     0.95000
C528        C  0.76447987  0.29444792  0.26980512     0.94200
C529        C  0.82099496  0.23917615  0.24395467     0.86300
C530        C  0.70149629  0.23217555  0.26813301     0.92600
N531        N  0.26994213  0.03455425  0.20844457    -0.25500
N532        N  0.26810476  0.04936774  0.19186589    -0.33400
C533        C  0.26741647  0.08099248  0.19498738     0.02800
C534        C  0.26890006  0.08637255  0.21434079     0.08800
C535        C  0.27045190  0.05652745  0.22246842    -0.04300
H536        H  0.26597538  0.09876110  0.18394000     0.09500
H537        H  0.27183407  0.05113520  0.23746947     0.10700
Cu538      Cu  0.26684967  0.02701230  0.16526874     0.44200
Cu539      Cu  0.27159182  0.98500319  0.21179241     0.42000
Cu540      Cu  0.26793133  0.94219292  0.16784376     0.43900
N541        N  0.26774928  0.99804113  0.14108772    -0.32900
N542        N  0.26837584  0.96672040  0.14246899    -0.27200
C543        C  0.27230536  0.95401238  0.12513056    -0.03300
C544        C  0.27400267  0.97830219  0.11202863     0.09000
C545        C  0.27100192  0.00607763  0.12259347     0.02800
H546        H  0.27547296  0.92890958  0.12238280     0.10400
H547        H  0.27334763  0.03020786  0.11744076     0.09500
N548        N  0.27033616  0.91987865  0.19388674    -0.34400
N549        N  0.27193282  0.93516359  0.21031898    -0.26500
C550        C  0.27346264  0.91348908  0.22442131    -0.01800
C551        C  0.27283254  0.88339896  0.21627575     0.06800
C552        C  0.27081153  0.88836955  0.19697835     0.04900
H553        H  0.27479391  0.91918889  0.23940754     0.10000
H554        H  0.26970240  0.87040883  0.18594222     0.08900
N555        N  0.96154746  0.23184794  0.21392216    -0.25500
N556        N  0.94612860  0.23327506  0.19757863    -0.33400
C557        C  0.91476610  0.23570172  0.20098826     0.02800
C558        C  0.91006803  0.23586002  0.22039515     0.08800
C559        C  0.94015248  0.23333050  0.22824039    -0.04300
H560        H  0.89673042  0.23734860  0.19010069     0.09500
H561        H  0.94605825  0.23273571  0.24319419     0.10700
Cu562      Cu  0.96824436  0.23255939  0.17125085     0.44200
Cu563      Cu  0.01128406  0.22858653  0.21527163     0.42000
Cu564      Cu  0.05289369  0.22283094  0.16911202     0.43900
N565        N  0.99394035  0.23322487  0.14611462    -0.32900
N566        N  0.02493192  0.22867114  0.14504470    -0.27200
C567        C  0.03442890  0.23296182  0.12690373    -0.03300
C568        C  0.00807419  0.24088821  0.11618408     0.09000
C569        C  0.98296409  0.24093224  0.12884189     0.02800
H570        H  0.05894440  0.23289826  0.12222414     0.10400
H571        H  0.95873548  0.24773191  0.12591474     0.09500
N572        N  0.07557615  0.22451829  0.19538061    -0.34400
N573        N  0.06090101  0.22691288  0.21200820    -0.26500
C574        C  0.08304731  0.22925514  0.22582228    -0.01800
C575        C  0.11282901  0.22833813  0.21744521     0.06800
C576        C  0.10722827  0.22529808  0.19820554     0.04900
H577        H  0.07783188  0.23197985  0.24080017     0.10000
H578        H  0.12485862  0.22438589  0.18700195     0.08900
O579        O  0.22475986  0.24392754  0.23000056    -0.71200
O580        O  0.31532799  0.24182232  0.24926523    -0.72200
O581        O  0.27428942  0.19849115  0.22905208    -0.60800
O582        O  0.26569859  0.28744432  0.25004344    -0.69200
O583        O  0.24845723  0.26765796  0.27747088    -0.68700
O584        O  0.25699447  0.17848354  0.25641037    -0.60000
O585        O  0.29790300  0.22190184  0.27661438    -0.72500
O586        O  0.20756555  0.22407307  0.25742211    -0.71300
Cu587      Cu  0.27063067  0.24362663  0.23863956     1.04600
Cu588      Cu  0.25215621  0.22235462  0.26794545     1.04300
C589        C  0.20206217  0.23394288  0.24060819     0.95000
C590        C  0.32071560  0.23171737  0.26606036     0.94200
C591        C  0.26660286  0.17459298  0.23932018     0.86300
C592        C  0.25591955  0.29149083  0.26707038     0.92600
N593        N  0.46067698  0.23351326  0.29708661    -0.25500
N594        N  0.44503156  0.23342081  0.31346014    -0.33400
C595        C  0.41356711  0.23302864  0.30993596     0.02800
C596        C  0.40911965  0.23290232  0.29049927     0.08800
C597        C  0.43939169  0.23322965  0.28274363    -0.04300
H598        H  0.39526826  0.23264190  0.32076674     0.09500
H599        H  0.44552376  0.23308938  0.26780137     0.10700
Cu600      Cu  0.46636395  0.23276860  0.34019879     0.44200
Cu601      Cu  0.51044025  0.23343976  0.29486630     0.42000
Cu602      Cu  0.55181848  0.23058738  0.33965997     0.43900
N603        N  0.49349904  0.22762111  0.36473882    -0.32900
N604        N  0.52486199  0.22601120  0.36423383    -0.27200
C605        C  0.53556744  0.21816931  0.38155405    -0.03300
C606        C  0.50987819  0.21511203  0.39368298     0.09000
C607        C  0.48346938  0.22131486  0.38258145     0.02800
H608        H  0.56017383  0.21342425  0.38484572     0.10400
H609        H  0.45879445  0.21889025  0.38675933     0.09500
N610        N  0.57501970  0.23199134  0.31362657    -0.34400
N611        N  0.56015927  0.23277399  0.29707536    -0.26500
C612        C  0.58211144  0.23270518  0.28304248    -0.01800
C613        C  0.61199783  0.23182214  0.29126154     0.06800
C614        C  0.60661706  0.23142217  0.31061364     0.04900
H615        H  0.57671104  0.23314009  0.26801731     0.10000
H616        H  0.62433996  0.23055734  0.32172177     0.08900
N617        N  0.24261856  0.53245096  0.28768672    -0.25500
N618        N  0.23556483  0.54894688  0.30313880    -0.33400
C619        C  0.23615955  0.58014916  0.29905874     0.02800
C620        C  0.24398672  0.58362330  0.28014913     0.08800
C621        C  0.24795206  0.55298909  0.27326828    -0.04300
H622        H  0.23220901  0.59895574  0.30929904     0.09500
H623        H  0.25503317  0.54618861  0.25904733     0.10700
Cu624      Cu  0.22834276  0.52899168  0.32962492     0.44200
Cu625      Cu  0.24628689  0.48277612  0.28800739     0.42000
Cu626      Cu  0.24350704  0.44613731  0.33580442     0.43900
N627        N  0.22578305  0.50662663  0.35570172    -0.32900
N628        N  0.23273171  0.47640461  0.35839020    -0.27200
C629        C  0.22800648  0.46927516  0.37687318    -0.03300
C630        C  0.21722717  0.49634543  0.38606389     0.09000
C631        C  0.21600310  0.51940278  0.37219083     0.02800
H632        H  0.23017670  0.44573367  0.38286153     0.10400
H633        H  0.20766096  0.54350357  0.37382760     0.09500
N634        N  0.24792563  0.42083644  0.31038626    -0.34400
N635        N  0.24867222  0.43377340  0.29322419    -0.26500
C636        C  0.25054889  0.41031896  0.28014915    -0.01800
C637        C  0.25094374  0.38146293  0.28953259     0.06800
C638        C  0.24925973  0.38896460  0.30862154     0.04900
H639        H  0.25129039  0.41401745  0.26494146     0.10000
H640        H  0.24868466  0.37246825  0.32039415     0.08900
N641        N  0.75945977  0.53546967  0.28587846    -0.25500
N642        N  0.75749976  0.55357795  0.30123711    -0.33400
C643        C  0.75911292  0.58431732  0.29613841     0.02800
C644        C  0.76228607  0.58575477  0.27666745     0.08800
C645        C  0.76241780  0.55443365  0.27049881    -0.04300
H646        H  0.75826472  0.60416746  0.30594579     0.09500
H647        H  0.76465226  0.54605723  0.25600658     0.10700
Cu648      Cu  0.75361391  0.53625089  0.32865614     0.44200
Cu649      Cu  0.75839974  0.48581227  0.28736133     0.42000
Cu650      Cu  0.74666693  0.45233660  0.33556399     0.43900
N651        N  0.75140082  0.51555554  0.35529360    -0.32900
N652        N  0.74772638  0.48466285  0.35807291    -0.27200
C653        C  0.74948501  0.47876905  0.37687805    -0.03300
C654        C  0.75485444  0.50739344  0.38626439     0.09000
C655        C  0.75609178  0.53006706  0.37211251     0.02800
H656        H  0.74958336  0.45524497  0.38306295     0.10400
H657        H  0.76170841  0.55509253  0.37381845     0.09500
N658        N  0.75266266  0.42534198  0.31092640    -0.34400
N659        N  0.75718554  0.43723546  0.29368738    -0.26500
C660        C  0.76140364  0.41305051  0.28134871    -0.01800
C661        C  0.75951699  0.38480884  0.29129656     0.06800
C662        C  0.75391514  0.39338011  0.30994706     0.04900
H663        H  0.76573477  0.41586996  0.26627956     0.10000
H664        H  0.75126180  0.37760214  0.32198145     0.08900
N665        N  0.46674218  0.73157387  0.28621097    -0.25500
N666        N  0.45313221  0.72814046  0.30311186    -0.33400
C667        C  0.42135659  0.72793486  0.30100170     0.02800
C668        C  0.41457400  0.73135607  0.28197463     0.08800
C669        C  0.44374524  0.73359457  0.27293750    -0.04300
H670        H  0.40444441  0.72580870  0.31254989     0.09500
H671        H  0.44797829  0.73672437  0.25788078     0.10700
Cu672      Cu  0.47684879  0.72563116  0.32897036     0.44200
Cu673      Cu  0.51596351  0.73440707  0.28171963     0.42000
Cu674      Cu  0.55949023  0.74100626  0.32543793     0.43900
N675        N  0.50558380  0.73104771  0.35278421    -0.32900
N676        N  0.53618694  0.73778817  0.35108785    -0.27200
C677        C  0.54824997  0.74476785  0.36823809    -0.03300
C678        C  0.52423627  0.74206942  0.38150678     0.09000
C679        C  0.49735389  0.73324331  0.37127869     0.02800
H680        H  0.57233214  0.75310732  0.37069944     0.10400
H681        H  0.47324902  0.73138966  0.37658834     0.09500
N682        N  0.58097157  0.74121715  0.29916548    -0.34400
N683        N  0.56559682  0.73830753  0.28286299    -0.26500
C684        C  0.58714654  0.73775843  0.26861833    -0.01800
C685        C  0.61717620  0.74053909  0.27656601     0.06800
C686        C  0.61238209  0.74267215  0.29586121     0.04900
H687        H  0.58142104  0.73504147  0.25371137     0.10000
H688        H  0.63040002  0.74443654  0.30678441     0.08900
C689        C  0.35279516  0.23181729  0.27341801    -0.11500
C690        C  0.37895007  0.23223740  0.28062808    -0.13100
C691        C  0.25363692  0.32333897  0.27469275    -0.11500
C692        C  0.25228878  0.34996951  0.28125190    -0.13100
C693        C  0.14353796  0.23115093  0.22656123    -0.11500
C694        C  0.16996564  0.23302764  0.23332441    -0.13100
C695        C  0.26817538  0.14294022  0.23132149    -0.11500
C696        C  0.26871722  0.11688440  0.22391945    -0.13100
C697        C  0.85331810  0.23926056  0.23690487    -0.11500
C698        C  0.87975385  0.23804303  0.23006363    -0.13100
C699        C  0.76443451  0.32626152  0.27751251    -0.11500
C700        C  0.76269558  0.35299227  0.28381155    -0.13100
C701        C  0.66916039  0.23130655  0.27512113    -0.11500
C702        C  0.64264859  0.23133629  0.28189552    -0.13100
C703        C  0.75631353  0.11975708  0.22678505    -0.11500
C704        C  0.75654608  0.14568715  0.23427400    -0.13100
C705        C  0.76342907  0.85604067  0.22457420    -0.11500
C706        C  0.76432554  0.82874195  0.22984561    -0.13100
C707        C  0.67449822  0.73856667  0.26119002    -0.11500
C708        C  0.64767289  0.73957129  0.26728239    -0.13100
C709        C  0.76510042  0.61452967  0.26564144    -0.11500
C710        C  0.76685233  0.64074578  0.25866514    -0.13100
C711        C  0.27292992  0.82585580  0.23158240    -0.11500
C712        C  0.27336359  0.85276178  0.22550312    -0.13100
C713        C  0.35651349  0.73324017  0.26746472    -0.11500
C714        C  0.38332824  0.73263924  0.27361160    -0.13100
C715        C  0.25384332  0.63995119  0.26424334    -0.11500
C716        C  0.24950871  0.61348271  0.27052642    -0.13100
C717        C  0.17386139  0.73193151  0.22801996    -0.11500
C718        C  0.14773300  0.73146778  0.22088617    -0.13100
C719        C  0.88532261  0.73285732  0.21852059    -0.11500
C720        C  0.85890679  0.73228753  0.22529783    -0.13100
C721        C  0.00710772  0.25367839  0.09671759    -0.14700
C722        C  0.02835802  0.24637348  0.08316043    -0.29800
H723        H  0.98790559  0.26982407  0.09344161     0.14400
H724        H  0.04611591  0.22833167  0.08567194     0.14900
C725        C  0.27927114  0.99513022  0.07808611    -0.14700
C726        C  0.28412209  0.97407131  0.09210111    -0.29800
H727        H  0.26508251  0.01615254  0.08055910     0.14400
H728        H  0.29609237  0.95194929  0.08882251     0.14900
C729        C  0.27206192  0.95005215  0.90621151    -0.14700
C730        C  0.26916804  0.97285478  0.91954220    -0.29800
H731        H  0.28340982  0.92782627  0.90988128     0.14400
H732        H  0.25591396  0.99426535  0.91655230     0.14900
C733        C  0.25629095  0.12259560  0.77205319    -0.11500
C734        C  0.25635058  0.09580459  0.77826845    -0.13100
C735        C  0.24897243  0.30704807  0.73587466    -0.11500
C736        C  0.24797165  0.33333607  0.72896681    -0.13100
C737        C  0.34479211  0.21225852  0.73558092    -0.11500
C738        C  0.37143890  0.21313270  0.72914819    -0.13100
C739        C  0.01048882  0.26175170  0.91222522    -0.14700
C740        C  0.03183380  0.25254105  0.92521348    -0.29800
H741        H  0.99265749  0.27910555  0.91611944     0.14400
H742        H  0.04806550  0.23330076  0.92212163     0.14900
C743        C  0.16085033  0.21786427  0.77254921    -0.11500
C744        C  0.13453253  0.21829423  0.77945158    -0.13100
C745        C  0.24962417  0.80651037  0.76194480    -0.11500
C746        C  0.25075406  0.83258782  0.76926914    -0.13100
C747        C  0.33951339  0.72197162  0.72633506    -0.11500
C748        C  0.36633868  0.72418109  0.72031970    -0.13100
C749        C  0.24517340  0.62373246  0.72152305    -0.11500
C750        C  0.24655157  0.59678161  0.71548322    -0.13100
C751        C  0.12602024  0.71069304  0.76390909    -0.11500
C752        C  0.15262045  0.71051230  0.75735275    -0.13100
C753        C  0.83646907  0.72508951  0.76728659    -0.11500
C754        C  0.86315078  0.72486552  0.77367787    -0.13100
C755        C  0.74883259  0.63702984  0.72746778    -0.11500
C756        C  0.74790924  0.61018169  0.72117412    -0.13100
C757        C  0.62897420  0.73095279  0.71902066    -0.11500
C758        C  0.65495681  0.73149574  0.72633092    -0.13100
C759        C  0.84552311  0.23497255  0.77630662    -0.11500
C760        C  0.87220024  0.23587271  0.78267962    -0.13100
C761        C  0.75724016  0.32089438  0.73873386    -0.11500
C762        C  0.75788561  0.34704905  0.73156080    -0.13100
C763        C  0.63485887  0.22215015  0.73322298    -0.11500
C764        C  0.66141116  0.22301392  0.73977159    -0.13100
C765        C  0.74790799  0.11024883  0.78296419    -0.11500
C766        C  0.74920737  0.13706219  0.77676473    -0.13100
C767        C  0.74037564  0.82036122  0.76687912    -0.11500
C768        C  0.73923706  0.84653269  0.77409755    -0.13100
C769        C  0.21203262  0.44565373  0.59195546    -0.14700
C770        C  0.22182418  0.46517600  0.57800480    -0.29800
H771        H  0.19435307  0.42726548  0.58896643     0.14400
H772        H  0.24128720  0.48190979  0.58039830     0.14900
C773        C  0.21506654  0.48274654  0.42028466    -0.14700
C774        C  0.20426568  0.49944141  0.40546414    -0.29800
H775        H  0.23545372  0.46736990  0.41857987     0.14400
H776        H  0.18571203  0.51683475  0.40769925     0.14900
C777        C  0.49210601  0.20587762  0.58544884    -0.14700
C778        C  0.51301007  0.19994155  0.59937317    -0.29800
H779        H  0.47242873  0.22187139  0.58792128     0.14400
H780        H  0.53399873  0.18606078  0.59618736     0.14900
C781        C  0.51096777  0.20120279  0.41289495    -0.14700
C782        C  0.49000043  0.20797378  0.42672042    -0.29800
H783        H  0.53046095  0.18525241  0.41589043     0.14400
H784        H  0.47212777  0.22602512  0.42453730     0.14900
C785        C  0.52673960  0.96940173  0.49143705    -0.14700
C786        C  0.52711649  0.98810760  0.50695399    -0.29800
H787        H  0.52737633  0.97993794  0.47737802     0.14400
H788        H  0.52739608  0.97755292  0.52100882     0.14900
C789        C  0.50835974  0.74943828  0.57376886    -0.14700
C790        C  0.49309633  0.76249347  0.58855495    -0.29800
H791        H  0.52085905  0.72716310  0.57544276     0.14400
H792        H  0.47813105  0.78303702  0.58631921     0.14900
C793        C  0.50700988  0.74482782  0.41524611    -0.14700
C794        C  0.52634530  0.75418457  0.40109818    -0.29800
H795        H  0.49001299  0.72550057  0.41313967     0.14400
H796        H  0.54498568  0.77165339  0.40398770     0.14900
C797        C  0.97753595  0.49422085  0.49332562    -0.14700
C798        C  0.99710121  0.48511607  0.50728338    -0.29800
H799        H  0.98716152  0.50074819  0.47953729     0.14400
H800        H  0.98745161  0.47843747  0.52103844     0.14900
C801        C  0.75939938  0.48303615  0.58028129    -0.14700
C802        C  0.77206938  0.46660567  0.59472088    -0.29800
H803        H  0.73768690  0.49631030  0.58244161     0.14400
H804        H  0.79212121  0.45118843  0.59196363     0.14900
C805        C  0.75524093  0.49413250  0.42068676    -0.14700
C806        C  0.76494268  0.51250031  0.40613259    -0.29800
H807        H  0.73705307  0.47593715  0.41853378     0.14400
H808        H  0.78120767  0.53226538  0.40884178     0.14900
C809        C  0.50372741  0.92704314  0.01113430    -0.14700
C810        C  0.48461044  0.92356514  0.99596770    -0.29800
H811        H  0.49368283  0.92783651  0.02534254     0.14400
H812        H  0.49471738  0.92217818  0.98179107     0.14900
C813        C  0.71100769  0.98725677  0.92362399    -0.14700
C814        C  0.70358026  0.96610535  0.90990104    -0.29800
H815        H  0.72785905  0.00643478  0.92079185     0.14400
H816        H  0.68872074  0.94559290  0.91331159     0.14900
C817        C  0.72144314  0.00223171  0.08178919    -0.14700
C818        C  0.71897996  0.98093572  0.09591744    -0.29800
H819        H  0.73656002  0.02318924  0.08334767     0.14400
H820        H  0.70601737  0.95879438  0.09346842     0.14900
C821        C  0.01226515  0.48925943  0.99216018    -0.14700
C822        C  0.00961671  0.47100013  0.00773189    -0.29800
H823        H  0.01397281  0.47839619  0.97819452     0.14400
H824        H  0.00783064  0.48186175  0.02169618     0.14900
C825        C  0.99034901  0.71034169  0.91494616    -0.14700
C826        C  0.00981471  0.70148551  0.90075484    -0.29800
H827        H  0.97263537  0.72850946  0.91266144     0.14400
H828        H  0.02907780  0.68525758  0.90374817     0.14900
C829        C  0.99745125  0.70937162  0.07426490    -0.14700
C830        C  0.01809222  0.70005326  0.08766219    -0.29800
H831        H  0.98109062  0.72859120  0.07715129     0.14400
H832        H  0.03615707  0.68276958  0.08406201     0.14900
loop_ 
_geom_bond_atom_site_label_1 
_geom_bond_atom_site_label_2 
_geom_bond_distance 
_geom_bond_site_symmetry_2 
_ccdc_geom_bond_type 
N1            N2   1.324   1_655  A
N1            C5   1.351       .  A
N1           Cu9   2.102   1_554  S
N2            C3   1.341       .  A
N2           Cu8   2.061       .  S
C3            C4   1.380   1_455  A
C3            H6   1.082       .  S
C4            C5   1.388       .  A
C4          C829   1.479       .  S
C5            H7   1.082       .  S
Cu8          N11   2.060       .  S
Cu9          N19   2.102       .  S
Cu10         N12   2.062       .  S
Cu10         N18   2.063       .  S
N11          N12   1.319   1_554  A
N11          C15   1.343       .  A
N12          C13   1.344       .  A
C13          C14   1.382       .  A
C13          H16   1.082       .  S
C14          C15   1.386   1_556  A
C14         C821   1.474       .  S
C15          H17   1.081       .  S
N18          N19   1.324   1_455  A
N18          C22   1.340       .  A
N19          C20   1.352       .  A
C20          C21   1.388       .  A
C20          H23   1.082       .  S
C21          C22   1.380   1_655  A
C21         C825   1.480       .  S
C22          H24   1.082       .  S
N25          N26   1.324       .  A
N25          C29   1.351   1_565  A
N25         Cu33   2.096       .  S
N26          C27   1.341       .  A
N26         Cu32   2.068       .  S
C27          C28   1.381       .  A
C27          H30   1.082       .  S
C28          C29   1.386   1_565  A
C28         C817   1.480   1_565  S
C29          H31   1.082       .  S
Cu32         N35   2.066       .  S
Cu33         N43   2.097   1_554  S
Cu34         N36   2.065       .  S
Cu34         N42   2.066       .  S
N35          N36   1.319   1_554  A
N35          C39   1.345       .  A
N36          C37   1.344       .  A
C37          C38   1.387   1_556  A
C37          H40   1.081       .  S
C38          C39   1.383       .  A
C38         C809   1.476       .  S
C39          H41   1.082       .  S
N42          N43   1.323       .  A
N42          C46   1.342       .  A
N43          C44   1.350       .  A
C44          C45   1.387       .  A
C44          H47   1.082   1_565  S
C45          C46   1.382       .  A
C45         C813   1.481       .  S
C46          H48   1.082       .  S
N49          N50   1.324       .  A
N49          C53   1.351       .  A
N49         Cu57   2.101       .  S
N50          C51   1.344       .  A
N50         Cu56   2.077       .  S
C51          C52   1.383       .  A
C51          H54   1.082       .  S
C52          C53   1.387       .  A
C52         C801   1.483       .  S
C53          H55   1.082       .  S
Cu56         N59   2.077       .  S
Cu57         N67   2.100       .  S
Cu58         N60   2.061       .  S
Cu58         N66   2.061       .  S
N59          N60   1.320       .  A
N59          C63   1.346       .  A
N60          C61   1.343       .  A
C61          C62   1.381       .  A
C61          H64   1.082       .  S
C62          C63   1.389       .  A
C62         C797   1.478       .  S
C63          H65   1.081       .  S
N66          N67   1.323       .  A
N66          C70   1.341       .  A
N67          C68   1.351       .  A
C68          C69   1.389       .  A
C68          H71   1.082       .  S
C69          C70   1.380       .  A
C69         C805   1.480       .  S
C70          H72   1.082       .  S
N73          N74   1.323       .  A
N73          C77   1.349       .  A
N73         Cu81   2.085       .  S
N74          C75   1.342       .  A
N74         Cu80   2.068       .  S
C75          C76   1.381       .  A
C75          H78   1.082       .  S
C76          C77   1.384       .  A
C76         C789   1.475       .  S
C77          H79   1.082       .  S
Cu80         N83   2.068       .  S
Cu81         N91   2.084       .  S
Cu82         N84   2.067       .  S
Cu82         N90   2.067       .  S
N83          N84   1.320       .  A
N83          C87   1.345       .  A
N84          C85   1.345       .  A
C85          C86   1.383       .  A
C85          H88   1.082       .  S
C86          C87   1.387       .  A
C86         C785   1.477       .  S
C87          H89   1.081       .  S
N90          N91   1.323       .  A
N90          C94   1.340       .  A
N91          C92   1.350       .  A
C92          C93   1.384       .  A
C92          H95   1.082       .  S
C93          C94   1.381       .  A
C93         C793   1.476       .  S
C94          H96   1.082       .  S
N97          N98   1.324       .  A
N97         C101   1.351       .  A
N97        Cu105   2.096       .  S
N98          C99   1.342       .  A
N98        Cu104   2.068       .  S
C99         C100   1.382       .  A
C99         H102   1.082       .  S
C100        C101   1.387       .  A
C100        C777   1.480       .  S
C101        H103   1.082       .  S
Cu104       N107   2.068       .  S
Cu105       N115   2.097       .  S
Cu106       N108   2.067       .  S
Cu106       N114   2.068       .  S
N107        N108   1.320       .  A
N107        C111   1.344       .  A
N108        C109   1.345       .  A
C109        C110   1.387       .  A
C109        H112   1.081       .  S
C110        C111   1.383       .  A
C110        C786   1.477   1_545  S
C111        H113   1.082       .  S
N114        N115   1.324       .  A
N114        C118   1.342       .  A
N115        C116   1.351       .  A
C116        C117   1.387       .  A
C116        H119   1.082       .  S
C117        C118   1.381       .  A
C117        C782   1.480       .  S
C118        H120   1.082       .  S
N121        N122   1.324       .  A
N121        C125   1.348       .  A
N121       Cu129   2.084       .  S
N122        C123   1.344       .  A
N122       Cu128   2.078       .  S
C123        C124   1.384       .  A
C123        H126   1.082       .  S
C124        C125   1.383       .  A
C124        C773   1.478       .  S
C125        H127   1.082       .  S
Cu128       N131   2.078       .  S
Cu129       N139   2.083       .  S
Cu130       N132   2.062       .  S
Cu130       N138   2.062       .  S
N131        N132   1.321       .  A
N131        C135   1.346       .  A
N132        C133   1.343       .  A
C133        C134   1.380       .  A
C133        H136   1.082       .  S
C134        C135   1.389       .  A
C134        C798   1.477   1_455  S
C135        H137   1.081       .  S
N138        N139   1.322       .  A
N138        C142   1.341       .  A
N139        C140   1.348       .  A
C140        C141   1.385       .  A
C140        H143   1.082       .  S
C141        C142   1.381       .  A
C141        C770   1.474       .  S
C142        H144   1.082       .  S
N145        N146   1.325       .  A
N145        C149   1.350       .  A
N145       Cu153   2.098   1_545  S
N146        C147   1.346       .  A
N146       Cu152   2.080       .  S
C147        C148   1.379       .  A
C147        H150   1.082       .  S
C148        C149   1.384       .  A
C148        C765   1.445       .  S
C149        H151   1.082       .  S
Cu152       N155   2.079   1_545  S
Cu153       N163   2.097       .  S
Cu154       N156   2.077       .  S
Cu154       N162   2.077       .  S
N155        N156   1.322       .  A
N155        C159   1.348       .  A
N156        C157   1.344       .  A
C157        C158   1.382       .  A
C157        H160   1.082       .  S
C158        C159   1.386       .  A
C158        C814   1.477       .  S
C159        H161   1.082   1_565  S
N162        N163   1.324       .  A
N162        C166   1.346       .  A
N163        C164   1.351       .  A
C164        C165   1.386       .  A
C164        H167   1.082       .  S
C165        C166   1.380       .  A
C165        C768   1.447       .  S
C166        H168   1.082       .  S
O169       Cu177   2.016       .  S
O169        C179   1.277       .  A
O170       Cu177   2.017       .  S
O170        C180   1.277       .  A
O171       Cu177   2.022       .  S
O171        C181   1.278       .  A
O172       Cu177   2.025       .  S
O172        C182   1.278       .  A
O173       Cu178   2.018       .  S
O173        C182   1.278       .  A
O174       Cu178   2.019       .  S
O174        C181   1.277       .  A
O175       Cu178   2.017       .  S
O175        C180   1.278       .  A
O176       Cu178   2.018       .  S
O176        C179   1.277       .  A
Cu177      Cu178   2.377       .  S
C179        C759   1.441       .  S
C180        C764   1.441       .  S
C181        C766   1.443       .  S
C182        C761   1.445       .  S
O183       Cu191   2.019       .  S
O183        C193   1.278       .  A
O184       Cu191   2.019       .  S
O184        C194   1.277       .  A
O185       Cu191   2.021       .  S
O185        C195   1.278       .  A
O186       Cu191   2.020       .  S
O186        C196   1.278       .  A
O187       Cu192   2.012       .  S
O187        C196   1.277       .  A
O188       Cu192   2.016       .  S
O188        C195   1.277       .  A
O189       Cu192   2.025       .  S
O189        C194   1.279       .  A
O190       Cu192   2.027       .  S
O190        C193   1.278       .  A
Cu191      Cu192   2.377       .  S
C193        C767   1.446       .  S
C194        C755   1.445       .  S
C195        C753   1.442       .  S
C196        C758   1.440       .  S
N197        N198   1.326       .  A
N197        C201   1.349       .  A
N197       Cu205   2.095       .  S
N198        C199   1.346       .  A
N198       Cu204   2.084       .  S
C199        C200   1.379       .  A
C199        H202   1.082       .  S
C200        C201   1.383       .  A
C200        C754   1.444       .  S
C201        H203   1.082       .  S
Cu204       N207   2.082       .  S
Cu205       N215   2.094   1_655  S
Cu206       N208   2.069       .  S
Cu206       N214   2.068       .  S
N207        N208   1.321   1_655  A
N207        C211   1.350       .  A
N208        C209   1.342       .  A
C209        C210   1.381       .  A
C209        H212   1.082       .  S
C210        C211   1.388   1_455  A
C210        C826   1.475       .  S
C211        H213   1.082       .  S
N214        N215   1.323       .  A
N214        C218   1.344       .  A
N215        C216   1.351       .  A
C216        C217   1.386       .  A
C216        H219   1.082       .  S
C217        C218   1.377       .  A
C217        C751   1.443       .  S
C218        H220   1.082       .  S
O221       Cu229   2.024       .  S
O221        C231   1.278       .  A
O222       Cu229   2.026       .  S
O222        C232   1.279       .  A
O223       Cu229   2.018       .  S
O223        C233   1.277       .  A
O224       Cu229   2.012       .  S
O224        C234   1.277       .  A
O225       Cu230   2.014       .  S
O225        C234   1.277       .  A
O226       Cu230   2.016       .  S
O226        C233   1.278       .  A
O227       Cu230   2.016       .  S
O227        C232   1.277       .  A
O228       Cu230   2.015       .  S
O228        C231   1.277       .  A
Cu229      Cu230   2.377       .  S
C231        C745   1.443       .  S
C232        C749   1.444       .  S
C233        C752   1.441       .  S
C234        C747   1.437       .  S
N235        N236   1.323       .  A
N235        C239   1.349       .  A
N235       Cu243   2.090   1_655  S
N236        C237   1.345       .  A
N236       Cu242   2.071       .  S
C237        C238   1.379       .  A
C237        H240   1.082       .  S
C238        C239   1.384       .  A
C238        C760   1.443       .  S
C239        H241   1.082       .  S
Cu242       N245   2.070       .  S
Cu243       N253   2.091       .  S
Cu244       N246   2.074       .  S
Cu244       N252   2.075       .  S
N245        N246   1.322   1_655  A
N245        C249   1.342       .  A
N246        C247   1.348       .  A
C247        C248   1.385       .  A
C247        H250   1.082       .  S
C248        C249   1.380   1_455  A
C248        C739   1.472       .  S
C249        H251   1.082       .  S
N252        N253   1.325       .  A
N252        C256   1.345       .  A
N253        C254   1.349       .  A
C254        C255   1.383       .  A
C254        H257   1.082       .  S
C255        C256   1.378       .  A
C255        C744   1.441       .  S
C256        H258   1.082       .  S
O259       Cu267   2.017       .  S
O259        C269   1.277       .  A
O260       Cu267   2.016       .  S
O260        C270   1.277       .  A
O261       Cu267   2.018       .  S
O261        C271   1.277       .  A
O262       Cu267   2.017       .  S
O262        C272   1.278       .  A
O263       Cu268   2.020       .  S
O263        C272   1.277       .  A
O264       Cu268   2.018       .  S
O264        C271   1.278       .  A
O265       Cu268   2.014       .  S
O265        C270   1.277       .  A
O266       Cu268   2.013       .  S
O266        C269   1.277       .  A
Cu267      Cu268   2.378       .  S
C269        C743   1.439       .  S
C270        C737   1.439       .  S
C271        C733   1.442       .  S
C272        C735   1.442       .  S
N273        N274   1.325       .  A
N273        C277   1.349       .  A
N273       Cu281   2.094   1_545  S
N274        C275   1.346       .  A
N274       Cu280   2.081       .  S
C275        C276   1.379       .  A
C275        H278   1.082       .  S
C276        C277   1.383       .  A
C276        C734   1.443       .  S
C277        H279   1.082       .  S
Cu280       N283   2.079   1_545  S
Cu281       N291   2.093       .  S
Cu282       N284   2.076       .  S
Cu282       N290   2.076       .  S
N283        N284   1.321       .  A
N283        C287   1.349       .  A
N284        C285   1.344       .  A
C285        C286   1.382       .  A
C285        H288   1.082       .  S
C286        C287   1.387       .  A
C286        C729   1.478       .  S
C287        H289   1.082   1_565  S
N290        N291   1.324       .  A
N290        C294   1.345       .  A
N291        C292   1.350       .  A
C292        C293   1.385       .  A
C292        H295   1.082       .  S
C293        C294   1.379       .  A
C293        C746   1.445       .  S
C294        H296   1.082       .  S
N297        N298   1.325       .  A
N297        C301   1.350       .  A
N297       Cu305   2.100       .  S
N298        C299   1.346       .  A
N298       Cu304   2.075       .  S
C299        C300   1.379       .  A
C299        H302   1.082       .  S
C300        C301   1.385       .  A
C300        C750   1.445       .  S
C301        H303   1.082       .  S
Cu304       N307   2.073       .  S
Cu305       N315   2.100       .  S
Cu306       N308   2.068       .  S
Cu306       N314   2.069       .  S
N307        N308   1.321       .  A
N307        C311   1.346       .  A
N308        C309   1.344       .  A
C309        C310   1.381       .  A
C309        H312   1.082       .  S
C310        C311   1.385       .  A
C310        C769   1.472       .  S
C311        H313   1.082       .  S
N314        N315   1.324       .  A
N314        C318   1.344       .  A
N315        C316   1.351       .  A
C316        C317   1.386       .  A
C316        H319   1.082       .  S
C317        C318   1.377       .  A
C317        C736   1.444       .  S
C318        H320   1.082       .  S
N321        N322   1.326       .  A
N321        C325   1.349       .  A
N321       Cu329   2.091       .  S
N322        C323   1.345       .  A
N322       Cu328   2.081       .  S
C323        C324   1.378       .  A
C323        H326   1.082       .  S
C324        C325   1.382       .  A
C324        C738   1.441       .  S
C325        H327   1.082       .  S
Cu328       N331   2.080       .  S
Cu329       N339   2.090       .  S
Cu330       N332   2.068       .  S
Cu330       N338   2.068       .  S
N331        N332   1.321       .  A
N331        C335   1.350       .  A
N332        C333   1.342       .  A
C333        C334   1.380       .  A
C333        H336   1.082       .  S
C334        C335   1.388       .  A
C334        C778   1.475       .  S
C335        H337   1.082       .  S
N338        N339   1.323       .  A
N338        C342   1.344       .  A
N339        C340   1.350       .  A
C340        C341   1.385       .  A
C340        H343   1.082       .  S
C341        C342   1.377       .  A
C341        C763   1.442       .  S
C342        H344   1.082       .  S
N345        N346   1.322       .  A
N345        C349   1.349       .  A
N345       Cu353   2.085       .  S
N346        C347   1.343       .  A
N346       Cu352   2.062       .  S
C347        C348   1.377       .  A
C347        H350   1.082       .  S
C348        C349   1.384       .  A
C348        C748   1.439       .  S
C349        H351   1.082       .  S
Cu352       N355   2.062       .  S
Cu353       N363   2.086       .  S
Cu354       N356   2.083       .  S
Cu354       N362   2.085       .  S
N355        N356   1.321       .  A
N355        C359   1.342       .  A
N356        C357   1.348       .  A
C357        C358   1.386       .  A
C357        H360   1.082       .  S
C358        C359   1.378       .  A
C358        C790   1.470       .  S
C359        H361   1.082       .  S
N362        N363   1.325       .  A
N362        C366   1.346       .  A
N363        C364   1.348       .  A
C364        C365   1.381       .  A
C364        H367   1.082       .  S
C365        C366   1.380       .  A
C365        C757   1.442       .  S
C366        H368   1.082       .  S
N369        N370   1.326       .  A
N369        C373   1.349       .  A
N369       Cu377   2.096       .  S
N370        C371   1.347       .  A
N370       Cu376   2.088       .  S
C371        C372   1.380       .  A
C371        H374   1.082       .  S
C372        C373   1.383       .  A
C372        C756   1.447       .  S
C373        H375   1.082       .  S
Cu376       N379   2.087       .  S
Cu377       N387   2.095       .  S
Cu378       N380   2.077       .  S
Cu378       N386   2.076       .  S
N379        N380   1.322       .  A
N379        C383   1.350       .  A
N380        C381   1.344       .  A
C381        C382   1.382       .  A
C381        H384   1.082       .  S
C382        C383   1.388       .  A
C382        C802   1.479       .  S
C383        H385   1.082       .  S
N386        N387   1.323       .  A
N386        C390   1.345       .  A
N387        C388   1.351       .  A
C388        C389   1.386       .  A
C388        H391   1.082       .  S
C389        C390   1.379       .  A
C389        C762   1.446       .  S
C390        H392   1.082       .  S
N393        N394   1.323       .  A
N393        C397   1.353       .  A
N393       Cu401   2.102   1_554  S
N394        C395   1.339       .  A
N394       Cu400   2.059       .  S
C395        C396   1.380       .  A
C395        H398   1.082       .  S
C396        C397   1.389       .  A
C396        C725   1.482       .  S
C397        H399   1.082   1_565  S
Cu400       N403   2.058       .  S
Cu401       N411   2.102       .  S
Cu402       N404   2.068       .  S
Cu402       N410   2.069       .  S
N403        N404   1.318   1_554  A
N403        C407   1.343       .  A
N404        C405   1.345       .  A
C405        C406   1.384       .  A
C405        H408   1.082       .  S
C406        C407   1.386   1_556  A
C406        C810   1.477       .  S
C407        H409   1.081       .  S
N410        N411   1.325       .  A
N410        C414   1.342       .  A
N411        C412   1.351       .  A
C412        C413   1.388       .  A
C412        H415   1.082       .  S
C413        C414   1.381       .  A
C413        C730   1.482       .  S
C414        H416   1.082       .  S
N417        N418   1.323       .  A
N417        C421   1.350       .  A
N417       Cu425   2.092   1_556  S
N418        C419   1.340       .  A
N418       Cu424   2.058       .  S
C419        C420   1.380       .  A
C419        H422   1.082       .  S
C420        C421   1.386       .  A
C420        C740   1.477       .  S
C421        H423   1.082       .  S
Cu424       N427   2.057       .  S
Cu425       N435   2.093       .  S
Cu426       N428   2.065       .  S
Cu426       N434   2.066       .  S
N427        N428   1.318   1_556  A
N427        C431   1.342       .  A
N428        C429   1.344       .  A
C429        C430   1.383       .  A
C429        H432   1.082       .  S
C430        C431   1.386   1_554  A
C430        C822   1.475       .  S
C431        H433   1.081       .  S
N434        N435   1.324       .  A
N434        C438   1.341       .  A
N435        C436   1.350       .  A
C436        C437   1.386       .  A
C436        H439   1.082       .  S
C437        C438   1.381       .  A
C437        C722   1.478       .  S
C438        H440   1.082       .  S
N441        N442   1.325       .  A
N441        C445   1.348       .  A
N441       Cu449   2.086   1_655  S
N442        C443   1.345       .  A
N442       Cu448   2.078       .  S
C443        C444   1.379       .  A
C443        H446   1.082       .  S
C444        C445   1.382       .  A
C444        C719   1.441       .  S
C445        H447   1.082       .  S
Cu448       N451   2.077   1_655  S
Cu449       N459   2.085       .  S
Cu450       N452   2.079       .  S
Cu450       N458   2.078       .  S
N451        N452   1.322       .  A
N451        C455   1.348   1_455  A
N452        C453   1.345       .  A
C453        C454   1.383       .  A
C453        H456   1.082       .  S
C454        C455   1.385   1_455  A
C454        C830   1.476       .  S
C455        H457   1.082       .  S
N458        N459   1.324       .  A
N458        C462   1.346       .  A
N459        C460   1.349       .  A
C460        C461   1.383       .  A
C460        H463   1.082       .  S
C461        C462   1.380       .  A
C461        C718   1.442       .  S
C462        H464   1.082       .  S
O465       Cu473   2.022       .  S
O465        C475   1.278       .  A
O466       Cu473   2.021       .  S
O466        C476   1.278       .  A
O467       Cu473   2.016       .  S
O467        C477   1.277       .  A
O468       Cu473   2.017       .  S
O468        C478   1.277       .  A
O469       Cu474   2.023       .  S
O469        C478   1.279       .  A
O470       Cu474   2.024       .  S
O470        C477   1.278       .  A
O471       Cu474   2.011       .  S
O471        C476   1.277       .  A
O472       Cu474   2.014       .  S
O472        C475   1.276       .  A
Cu473      Cu474   2.377       .  S
C475        C713   1.441       .  S
C476        C717   1.441       .  S
C477        C715   1.443       .  S
C478        C711   1.443       .  S
O479       Cu487   2.009       .  S
O479        C489   1.276       .  A
O480       Cu487   2.011       .  S
O480        C490   1.276       .  A
O481       Cu487   2.023       .  S
O481        C491   1.278       .  A
O482       Cu487   2.019       .  S
O482        C492   1.278       .  A
O483       Cu488   2.012       .  S
O483        C492   1.276       .  A
O484       Cu488   2.012       .  S
O484        C491   1.277       .  A
O485       Cu488   2.019       .  S
O485        C490   1.278       .  A
O486       Cu488   2.017       .  S
O486        C489   1.278       .  A
Cu487      Cu488   2.378       .  S
C489        C707   1.438       .  S
C490        C720   1.439       .  S
C491        C710   1.441       .  S
C492        C706   1.440       .  S
N493        N494   1.327       .  A
N493        C497   1.349       .  A
N493       Cu501   2.094   1_545  S
N494        C495   1.346       .  A
N494       Cu500   2.087       .  S
C495        C496   1.379       .  A
C495        H498   1.082       .  S
C496        C497   1.382       .  A
C496        C703   1.443       .  S
C497        H499   1.082       .  S
Cu500       N503   2.085       .  S
Cu501       N511   2.092       .  S
Cu502       N504   2.060       .  S
Cu502       N510   2.059       .  S
N503        N504   1.321   1_545  A
N503        C507   1.350       .  A
N504        C505   1.341       .  A
C505        C506   1.378       .  A
C505        H508   1.082       .  S
C506        C507   1.389   1_565  A
C506        C818   1.474       .  S
C507        H509   1.082       .  S
N510        N511   1.322       .  A
N510        C514   1.342       .  A
N511        C512   1.351       .  A
C512        C513   1.386       .  A
C512        H515   1.082       .  S
C513        C514   1.376       .  A
C513        C705   1.441       .  S
C514        H516   1.082       .  S
O517       Cu525   2.013       .  S
O517        C527   1.277       .  A
O518       Cu525   2.014       .  S
O518        C528   1.277       .  A
O519       Cu525   2.025       .  S
O519        C529   1.279       .  A
O520       Cu525   2.024       .  S
O520        C530   1.278       .  A
O521       Cu526   2.021       .  S
O521        C530   1.278       .  A
O522       Cu526   2.023       .  S
O522        C529   1.278       .  A
O523       Cu526   2.022       .  S
O523        C528   1.278       .  A
O524       Cu526   2.021       .  S
O524        C527   1.278       .  A
Cu525      Cu526   2.376       .  S
C527        C704   1.441       .  S
C528        C699   1.442       .  S
C529        C697   1.446       .  S
C530        C701   1.445       .  S
N531        N532   1.327       .  A
N531        C535   1.350       .  A
N531       Cu539   2.099   1_545  S
N532        C533   1.348       .  A
N532       Cu538   2.092       .  S
C533        C534   1.381       .  A
C533        H536   1.082       .  S
C534        C535   1.383       .  A
C534        C696   1.447       .  S
C535        H537   1.082       .  S
Cu538       N541   2.090   1_545  S
Cu539       N549   2.098       .  S
Cu540       N542   2.064       .  S
Cu540       N548   2.064       .  S
N541        N542   1.321       .  A
N541        C545   1.352   1_565  A
N542        C543   1.341       .  A
C543        C544   1.379       .  A
C543        H546   1.082       .  S
C544        C545   1.389   1_565  A
C544        C726   1.475       .  S
C545        H547   1.082       .  S
N548        N549   1.322       .  A
N548        C552   1.344       .  A
N549        C550   1.351       .  A
C550        C551   1.387       .  A
C550        H553   1.082       .  S
C551        C552   1.377       .  A
C551        C712   1.445       .  S
C552        H554   1.082       .  S
N555        N556   1.323       .  A
N555        C559   1.351       .  A
N555       Cu563   2.101   1_655  S
N556        C557   1.345       .  A
N556       Cu562   2.071       .  S
C557        C558   1.379       .  A
C557        H560   1.082       .  S
C558        C559   1.387       .  A
C558        C698   1.448       .  S
C559        H561   1.082       .  S
Cu562       N565   2.071       .  S
Cu563       N573   2.101       .  S
Cu564       N566   2.080       .  S
Cu564       N572   2.082       .  S
N565        N566   1.322   1_655  A
N565        C569   1.343       .  A
N566        C567   1.349       .  A
C567        C568   1.386       .  A
C567        H570   1.082       .  S
C568        C569   1.380   1_455  A
C568        C721   1.474       .  S
C569        H571   1.082       .  S
N572        N573   1.326       .  A
N572        C576   1.347       .  A
N573        C574   1.350       .  A
C574        C575   1.384       .  A
C574        H577   1.082       .  S
C575        C576   1.380       .  A
C575        C693   1.447       .  S
C576        H578   1.082       .  S
O579       Cu587   2.024       .  S
O579        C589   1.278       .  A
O580       Cu587   2.027       .  S
O580        C590   1.278       .  A
O581       Cu587   2.020       .  S
O581        C591   1.278       .  A
O582       Cu587   2.020       .  S
O582        C592   1.277       .  A
O583       Cu588   2.025       .  S
O583        C592   1.278       .  A
O584       Cu588   2.025       .  S
O584        C591   1.278       .  A
O585       Cu588   2.020       .  S
O585        C590   1.278       .  A
O586       Cu588   2.020       .  S
O586        C589   1.277       .  A
Cu587      Cu588   2.376       .  S
C589        C694   1.445       .  S
C590        C689   1.446       .  S
C591        C695   1.446       .  S
C592        C691   1.445       .  S
N593        N594   1.326       .  A
N593        C597   1.350       .  A
N593       Cu601   2.099       .  S
N594        C595   1.347       .  A
N594       Cu600   2.086       .  S
C595        C596   1.381       .  A
C595        H598   1.082       .  S
C596        C597   1.384       .  A
C596        C690   1.448       .  S
C597        H599   1.082       .  S
Cu600       N603   2.085       .  S
Cu601       N611   2.098       .  S
Cu602       N604   2.074       .  S
Cu602       N610   2.074       .  S
N603        N604   1.322       .  A
N603        C607   1.350       .  A
N604        C605   1.343       .  A
C605        C606   1.381       .  A
C605        H608   1.082       .  S
C606        C607   1.387       .  A
C606        C781   1.475       .  S
C607        H609   1.082       .  S
N610        N611   1.323       .  A
N610        C614   1.346       .  A
N611        C612   1.350       .  A
C612        C613   1.386       .  A
C612        H615   1.082       .  S
C613        C614   1.380       .  A
C613        C702   1.447       .  S
C614        H616   1.082       .  S
N617        N618   1.323       .  A
N617        C621   1.351       .  A
N617       Cu625   2.096       .  S
N618        C619   1.344       .  A
N618       Cu624   2.066       .  S
C619        C620   1.378       .  A
C619        H622   1.082       .  S
C620        C621   1.386       .  A
C620        C716   1.444       .  S
C621        H623   1.082       .  S
Cu624       N627   2.066       .  S
Cu625       N635   2.098       .  S
Cu626       N628   2.085       .  S
Cu626       N634   2.087       .  S
N627        N628   1.322       .  A
N627        C631   1.343       .  A
N628        C629   1.349       .  A
C629        C630   1.388       .  A
C629        H632   1.082       .  S
C630        C631   1.379       .  A
C630        C774   1.475       .  S
C631        H633   1.082       .  S
N634        N635   1.326       .  A
N634        C638   1.347       .  A
N635        C636   1.349       .  A
C636        C637   1.383       .  A
C636        H639   1.082       .  S
C637        C638   1.380       .  A
C637        C692   1.447       .  S
C638        H640   1.082       .  S
N641        N642   1.323       .  A
N641        C645   1.351       .  A
N641       Cu649   2.091       .  S
N642        C643   1.343       .  A
N642       Cu648   2.070       .  S
C643        C644   1.378       .  A
C643        H646   1.082       .  S
C644        C645   1.385       .  A
C644        C709   1.443       .  S
C645        H647   1.082       .  S
Cu648       N651   2.070       .  S
Cu649       N659   2.092       .  S
Cu650       N652   2.084       .  S
Cu650       N658   2.085       .  S
N651        N652   1.321       .  A
N651        C655   1.343       .  A
N652        C653   1.349       .  A
C653        C654   1.387       .  A
C653        H656   1.082       .  S
C654        C655   1.381       .  A
C654        C806   1.476       .  S
C655        H657   1.082       .  S
N658        N659   1.326       .  A
N658        C662   1.347       .  A
N659        C660   1.348       .  A
C660        C661   1.382       .  A
C660        H663   1.082       .  S
C661        C662   1.380       .  A
C661        C700   1.444       .  S
C662        H664   1.082       .  S
N665        N666   1.326       .  A
N665        C669   1.349       .  A
N665       Cu673   2.096       .  S
N666        C667   1.345       .  A
N666       Cu672   2.080       .  S
C667        C668   1.378       .  A
C667        H670   1.082       .  S
C668        C669   1.383       .  A
C668        C714   1.443       .  S
C669        H671   1.082       .  S
Cu672       N675   2.078       .  S
Cu673       N683   2.094       .  S
Cu674       N676   2.056       .  S
Cu674       N682   2.056       .  S
N675        N676   1.320       .  A
N675        C679   1.349       .  A
N676        C677   1.340       .  A
C677        C678   1.378       .  A
C677        H680   1.082       .  S
C678        C679   1.388       .  A
C678        C794   1.470       .  S
C679        H681   1.082       .  S
N682        N683   1.322       .  A
N682        C686   1.342       .  A
N683        C684   1.350       .  A
C684        C685   1.386       .  A
C684        H687   1.082       .  S
C685        C686   1.375       .  A
C685        C708   1.439       .  S
C686        H688   1.082       .  S
C689        C690   1.212       .  T
C691        C692   1.212       .  T
C693        C694   1.212       .  T
C695        C696   1.212       .  T
C697        C698   1.212       .  T
C699        C700   1.210       .  T
C701        C702   1.212       .  T
C703        C704   1.209       .  T
C705        C706   1.208       .  T
C707        C708   1.207       .  T
C709        C710   1.209       .  T
C711        C712   1.211       .  T
C713        C714   1.209       .  T
C715        C716   1.210       .  T
C717        C718   1.209       .  T
C719        C720   1.208       .  T
C721        C722   1.343       .  D
C721        H723   1.087   1_455  S
C722        H724   1.086       .  S
C725        C726   1.345       .  D
C725        H727   1.086   1_565  S
C726        H728   1.087       .  S
C729        C730   1.345       .  D
C729        H731   1.086       .  S
C730        H732   1.086       .  S
C733        C734   1.210       .  T
C735        C736   1.210       .  T
C737        C738   1.208       .  T
C739        C740   1.343       .  D
C739        H741   1.087   1_455  S
C740        H742   1.086       .  S
C743        C744   1.208       .  T
C745        C746   1.211       .  T
C747        C748   1.207       .  T
C749        C750   1.211       .  T
C751        C752   1.210       .  T
C753        C754   1.210       .  T
C755        C756   1.212       .  T
C757        C758   1.209       .  T
C759        C760   1.209       .  T
C761        C762   1.211       .  T
C763        C764   1.209       .  T
C765        C766   1.211       .  T
C767        C768   1.212       .  T
C769        C770   1.342       .  D
C769        H771   1.087       .  S
C770        H772   1.086       .  S
C773        C774   1.342       .  D
C773        H775   1.086       .  S
C774        H776   1.087       .  S
C777        C778   1.344       .  D
C777        H779   1.086       .  S
C778        H780   1.087       .  S
C781        C782   1.344       .  D
C781        H783   1.087       .  S
C782        H784   1.086       .  S
C785        C786   1.343       .  D
C785        H787   1.085       .  S
C786        H788   1.085       .  S
C789        C790   1.341       .  D
C789        H791   1.086       .  S
C790        H792   1.087       .  S
C793        C794   1.341       .  D
C793        H795   1.086       .  S
C794        H796   1.087       .  S
C797        C798   1.342       .  D
C797        H799   1.085       .  S
C798        H800   1.085       .  S
C801        C802   1.345       .  D
C801        H803   1.086       .  S
C802        H804   1.087       .  S
C805        C806   1.344       .  D
C805        H807   1.086       .  S
C806        H808   1.087       .  S
C809        C810   1.344   1_554  D
C809        H811   1.085       .  S
C810        H812   1.085       .  S
C813        C814   1.345       .  D
C813        H815   1.086   1_565  S
C814        H816   1.086       .  S
C817        C818   1.343   1_545  D
C817        H819   1.086       .  S
C818        H820   1.087       .  S
C821        C822   1.343   1_556  D
C821        H823   1.085       .  S
C822        H824   1.085       .  S
C825        C826   1.344   1_655  D
C825        H827   1.086       .  S
C826        H828   1.087       .  S
C829        C830   1.345   1_655  D
C829        H831   1.086       .  S
C830        H832   1.087       .  S
