geometry optimzed in LAMMPS
_audit_creation_date              2020-11-30 
_audit_creation_method            'lammps2cif' 
_symmetry_space_group_name_H-M    'P1' 
_symmetry_Int_Tables_number       1 
_symmetry_cell_setting            triclinic 
loop_ 
_symmetry_equiv_pos_as_xyz 
  x,y,z 
_cell_length_a                    53.397132409114654 
_cell_length_b                    25.794243789623607 
_cell_length_c                    33.71933998862262 
_cell_angle_alpha                 90.45761745516059 
_cell_angle_beta                  89.91746291157669 
_cell_angle_gamma                 90.10804328138049 
loop_ 
_atom_site_label 
_atom_site_type_symbol 
_atom_site_fract_x 
_atom_site_fract_y 
_atom_site_fract_z 
_atom_site_charge 
O1          O  0.47313338  0.04574340  0.38730766    -0.88850
C2          C  0.03733485  0.82384878  0.00158876     1.11190
O3          O  0.00194194  0.02913194  0.46574745    -1.36650
O4          O  0.47284957  0.84369221  0.46921466    -0.90330
O5          O  0.47417524  0.11735674  0.42460022    -0.91000
O6          O  0.44939706  0.05712758  0.50764043    -0.79820
O7          O  0.47842429  0.94360582  0.42688837    -1.01900
C8          C  0.45633515  0.94239701  0.07977872     1.21240
O9          O  0.50222308  0.02631382  0.04788196    -1.36800
Mn10       Mn  0.02943130  0.99581945  0.00555957     1.82060
O11         O  0.44884023  0.96337589  0.04832785    -0.78890
O12         O  0.47398405  0.84076682  0.03568213    -0.88290
C13         C  0.04819471  0.94169538  0.07745651     1.12320
C14         C  0.46500999  0.82703259  0.00234259     1.07050
O15         O  0.05508208  0.05724307  0.00653011    -0.79830
O16         O  0.00190557  0.93457616  0.00438596    -1.33520
O17         O  0.02594861  0.11252987  0.00862967    -0.99040
C18         C  0.46735385  0.08284257  0.12323451     1.05760
Mn19       Mn  0.50202963  0.88981898  0.05659337     1.48570
O20         O  0.47570393  0.11159258  0.09606679    -0.88240
Mn21       Mn  0.00212245  0.11155166  0.46573130     1.49560
O22         O  0.03004592  0.04486241  0.38635522    -0.92120
C23         C  0.45590995  0.94817485  0.43006276     1.18960
C24         C  0.03843321  0.08965380  0.39529095     1.11010
Mn25       Mn  0.47453089  0.99563858  0.50615927     1.80970
O26         O  0.02566519  0.93766004  0.08177059    -0.97270
Mn27       Mn  0.50176792  0.99602083  0.40824647     1.49260
C28         C  0.46493046  0.09054292  0.39685749     1.07530
Mn29       Mn  0.00293059  0.98941652  0.10378861     1.49930
C30         C  0.04102277  0.08102391  0.11885697     1.10440
O31         O  0.47845012  0.11333718  0.50967699    -1.03070
O32         O  0.02968982  0.83989137  0.03520700    -0.92730
C33         C  0.45605460  0.10359791  0.50916401     1.21720
O34         O  0.47890851  0.93814544  0.08353026    -1.03460
O35         O  0.02867697  0.83990070  0.46875347    -0.90860
O36         O  0.03241706  0.03604684  0.12660399    -0.90470
O37         O  0.02982220  0.11747131  0.42311751    -0.90490
Mn38       Mn  0.00131514  0.89277981  0.45011792     1.47860
O39         O  0.05547066  0.96369580  0.04643880    -0.78960
C40         C  0.04833050  0.10361158  0.00773176     1.14770
O41         O  0.44825244  0.96634846  0.46269088    -0.77690
O42         O  0.05492817  0.96566953  0.46247762    -0.77310
Mn43       Mn  0.50267135  0.10826185  0.05253040     1.51060
O44         O  0.47522499  0.03712563  0.12954350    -0.89660
O45         O  0.02507740  0.94166768  0.42575210    -0.97190
O46         O  0.03120549  0.10996724  0.09328345    -0.92200
C47         C  0.04760861  0.94500153  0.43063324     1.12560
C48         C  0.11464854  0.28004772  0.50424890     0.02460
C49         C  0.12292604  0.30230946  0.46843249    -0.13690
C50         C  0.14177669  0.34032797  0.46927806    -0.00040
C51         C  0.15146775  0.35597916  0.50588865    -0.12210
C52         C  0.14187455  0.33780249  0.04138470     0.02450
C53         C  0.12393467  0.29843456  0.04079838    -0.11630
H54         H  0.11538504  0.28881487  0.44039610     0.08050
H55         H  0.16718094  0.38270045  0.50702947     0.05580
H56         H  0.11748480  0.28176203  0.06840465     0.05430
C57         C  0.38732937  0.27492806  0.50279778     0.02460
C58         C  0.37794692  0.29469554  0.46695012    -0.13690
C59         C  0.36020398  0.33461316  0.46811043    -0.00040
C60         C  0.35281360  0.35565529  0.50431518    -0.12210
C61         C  0.36089897  0.33429136  0.03970959     0.02450
C62         C  0.37847973  0.29434900  0.03926839    -0.11630
H63         H  0.38332383  0.27734317  0.43883725     0.08050
H64         H  0.33847520  0.38548247  0.50494605     0.05580
H65         H  0.38454958  0.27733454  0.06691757     0.05430
C66         C  0.38257346  0.68370730  0.00449023     0.02460
C67         C  0.37341613  0.66178672  0.96915195    -0.13690
C68         C  0.35418261  0.62481115  0.96993341    -0.00040
C69         C  0.34503455  0.60849003  0.00715641    -0.12210
C70         C  0.35344693  0.63152183  0.04295930     0.02450
C71         C  0.37221816  0.66932214  0.04103834    -0.11630
H72         H  0.38059953  0.67529901  0.44102970     0.08050
H73         H  0.33015981  0.57988833  0.00809827     0.05580
H74         H  0.37822216  0.68921087  0.06779561     0.05430
C75         C  0.11606789  0.67004567  0.00552748     0.02460
C76         C  0.12653968  0.65251944  0.46958779    -0.13690
C77         C  0.14728054  0.61936881  0.46939868    -0.00040
C78         C  0.15737938  0.60294676  0.00580701    -0.12210
C79         C  0.14680600  0.61934741  0.04216529     0.02450
C80         C  0.12578548  0.65194952  0.04168002    -0.11630
H81         H  0.11947306  0.66714409  0.44171223     0.08050
H82         H  0.17411646  0.57924904  0.00588286     0.05580
H83         H  0.11789968  0.66563755  0.06947096     0.05430
O84         O  0.22461119  0.39394654  0.17171913    -0.88850
C85         C  0.28970808  0.42944146  0.36701734     1.11190
O86         O  0.25179753  0.48237729  0.21430681    -1.36650
O87         O  0.22516908  0.39718705  0.34176910    -0.90330
O88         O  0.22403093  0.46473375  0.13444806    -0.91000
O89         O  0.19719862  0.54072645  0.21339798    -0.79820
O90         O  0.22938923  0.39612757  0.25623839    -1.01900
C91         C  0.20440211  0.56376939  0.32876272     1.21240
O92         O  0.24984835  0.57658507  0.25483832    -1.36800
Mn93       Mn  0.27895176  0.51775887  0.25483060     1.82050
O94         O  0.19756711  0.54105504  0.29753537    -0.78890
O95         O  0.22429534  0.47141271  0.37545321    -0.88290
C96         C  0.29575463  0.57310557  0.32850244     1.12320
C97         C  0.21583695  0.42634705  0.36821912     1.07050
O98         O  0.30411278  0.55302112  0.21231621    -0.79830
O99         O  0.25198466  0.48381665  0.29600877    -1.33520
O100        O  0.27272556  0.57153840  0.17857015    -0.99040
C101        C  0.21158402  0.68466221  0.25408936     1.05760
Mn102      Mn  0.25159370  0.52053191  0.35212655     1.48570
O103        O  0.22007775  0.66864271  0.22092620    -0.88240
Mn104      Mn  0.25132143  0.51626344  0.15772192     1.49560
O105        O  0.27975559  0.39639523  0.16983296    -0.92120
C106        C  0.20685777  0.40253720  0.25633384     1.18960
C107        C  0.28945728  0.42443150  0.14357069     1.11010
Mn108      Mn  0.22374558  0.51234809  0.25520590     1.80970
O109        O  0.27320925  0.57403600  0.33106535    -0.97270
Mn110      Mn  0.25266953  0.40017063  0.21256245     1.49260
C111        C  0.21560265  0.42013475  0.14385556     1.07530
Mn112      Mn  0.24902346  0.62135639  0.30737426     1.49930
C113        C  0.28434369  0.68939276  0.25398883     1.10440
O114        O  0.22650017  0.56724649  0.17686077    -1.03070
O115        O  0.28144328  0.47484153  0.37468664    -0.92730
C116        C  0.20403342  0.56152003  0.18159399     1.21720
O117        O  0.22681897  0.57069203  0.33301987    -1.03460
O118        O  0.28060593  0.40002977  0.34077124    -0.90860
O119        O  0.27639528  0.67338088  0.28731108    -0.90470
O120        O  0.28154502  0.46999222  0.13576255    -0.90490
Mn121      Mn  0.25302271  0.40182244  0.29923131     1.47860
O122        O  0.30434583  0.55244989  0.29735924    -0.78960
C123        C  0.29521450  0.57346526  0.18156624     1.14770
O124        O  0.19914179  0.44832627  0.25535835    -0.77690
O125        O  0.30547421  0.45675583  0.25452052    -0.77310
Mn126      Mn  0.24868429  0.61934519  0.20166858     1.51060
O127        O  0.21999068  0.66981740  0.28750877    -0.89660
O128        O  0.27678170  0.39979337  0.25544599    -0.97190
O129        O  0.27582874  0.67305102  0.22090495    -0.92200
C130        C  0.29910714  0.40970304  0.25450796     1.12560
C131        C  0.13916828  0.22712066  0.25328651     0.02460
C132        C  0.13442468  0.19969123  0.21778722    -0.13690
C133        C  0.11869632  0.15589464  0.21810172    -0.00040
C134        C  0.10840204  0.13964737  0.25392711    -0.12210
C135        C  0.11095509  0.16951138  0.28821480     0.02450
C136        C  0.12712111  0.21224071  0.28854009    -0.11630
H137        H  0.14203270  0.21356676  0.19000448     0.08050
H138        H  0.09512935  0.10772414  0.25403720     0.05580
H139        H  0.12918016  0.23547594  0.31525319     0.05430
C140        C  0.36455582  0.84244741  0.25456130     0.02460
C141        C  0.37436980  0.86033958  0.21827558    -0.13690
C142        C  0.39335431  0.89801179  0.21756201    -0.00040
C143        C  0.40191646  0.91901433  0.25370712    -0.12210
C144        C  0.39338360  0.90026332  0.29066054     0.02450
C145        C  0.37427910  0.86247826  0.29054650    -0.11630
H146        H  0.36811450  0.84300076  0.19062759     0.08050
H147        H  0.41672361  0.94778238  0.25289253     0.05580
H148        H  0.36763095  0.84701008  0.31835710     0.05430
C149        C  0.13867176  0.85020381  0.25494693     0.02460
C150        C  0.12719451  0.86376696  0.21902556    -0.13690
C151        C  0.10633808  0.89665440  0.21866589    -0.00040
C152        C  0.09741672  0.91727968  0.25481149    -0.12210
C153        C  0.10815056  0.90275435  0.29110086     0.02450
C154        C  0.12901456  0.86983971  0.29090661    -0.11630
H155        H  0.13347720  0.84596392  0.19155064     0.08050
H156        H  0.08095323  0.94179819  0.25494316     0.05580
H157        H  0.13679670  0.85704534  0.31883485     0.05430
C158        C  0.37012325  0.24041990  0.25857204     0.02460
C159        C  0.37982848  0.21886468  0.22332599    -0.13690
C160        C  0.39442287  0.17393397  0.22480677    -0.00040
C161        C  0.39880617  0.15011625  0.26095765    -0.12210
C162        C  0.39053933  0.17251393  0.29637726     0.02450
C163        C  0.37603026  0.21788441  0.29529159    -0.11630
H164        H  0.37654205  0.23760673  0.19516381     0.08050
H165        H  0.41131840  0.11701628  0.26181419     0.05580
H166        H  0.36981113  0.23596676  0.32269208     0.05430
C167        C  0.15816151  0.80930897  0.25522244    -0.06790
C168        C  0.15369715  0.76479546  0.27786049    -0.17920
C169        C  0.17012103  0.72269389  0.27682874     0.10410
C170        C  0.19201974  0.72511717  0.25344474    -0.06720
C171        C  0.19629356  0.76920758  0.23022657    -0.17950
C172        C  0.17985375  0.81140970  0.23116481     0.10440
S173        S  0.16092531  0.66577066  0.30347837    -0.32920
S174        S  0.18820406  0.86731116  0.20217334    -0.32920
H175        H  0.17697143  0.90400045  0.22758541     0.28450
H176        H  0.17152345  0.63056043  0.27622050     0.28440
H177        H  0.13669412  0.76193038  0.29534629     0.19030
H178        H  0.21304613  0.77155079  0.21213116     0.19040
C179        C  0.30455341  0.72892731  0.25389237    -0.06790
C180        C  0.32578187  0.72104606  0.27761665    -0.17920
C181        C  0.34593984  0.75605992  0.27747354     0.10410
C182        C  0.34456707  0.80173904  0.25441662    -0.06720
C183        C  0.32327276  0.80936748  0.23064557    -0.17950
C184        C  0.30338187  0.77378673  0.23018862     0.10440
S185        S  0.37335528  0.73814111  0.30537906    -0.32920
S186        S  0.27651167  0.78910716  0.20015936    -0.32920
H187        H  0.25878285  0.76996658  0.22725921     0.28450
H188        H  0.39067026  0.76035032  0.27898789     0.28440
H189        H  0.32706809  0.68629411  0.29535127     0.19030
H190        H  0.32183229  0.84408664  0.21293916     0.19040
C191        C  0.18954949  0.35732671  0.25641981    -0.06790
C192        C  0.16546289  0.36303980  0.24022055    -0.17920
C193        C  0.14863754  0.32131601  0.23841935     0.10410
C194        C  0.15584235  0.27274181  0.25359904    -0.06720
C195        C  0.17969813  0.26682885  0.26986899    -0.17950
C196        C  0.19679724  0.30802611  0.27102852     0.10440
S197        S  0.11848126  0.33250179  0.21600798    -0.32920
S198        S  0.22754731  0.29608528  0.29155094    -0.32920
H199        H  0.22389813  0.24386720  0.30176243     0.28450
H200        H  0.10520580  0.29508861  0.23759344     0.28440
H201        H  0.15979756  0.40007935  0.22831415     0.19030
H202        H  0.18496068  0.22930555  0.28128875     0.19040
C203        C  0.31769604  0.36668866  0.25339754    -0.06790
C204        C  0.34219296  0.37584454  0.26713877    -0.17920
C205        C  0.35985295  0.33571672  0.26923072     0.10410
C206        C  0.35311610  0.28533338  0.25650990    -0.06720
C207        C  0.32911002  0.27636255  0.24158367    -0.17950
C208        C  0.31126143  0.31589862  0.24005395     0.10440
S209        S  0.39044452  0.35119847  0.28871096    -0.32920
S210        S  0.28057326  0.29950608  0.22086092    -0.32920
H211        H  0.28645498  0.24998403  0.20583252     0.28450
H212        H  0.40358199  0.31206959  0.26829261     0.28440
H213        H  0.34756515  0.41433538  0.27683073     0.19030
H214        H  0.32421240  0.23753565  0.23190930     0.19040
C215        C  0.18665738  0.57947352  0.14965882    -0.06790
C216        C  0.19644106  0.61549121  0.12261285    -0.17920
C217        C  0.18355977  0.63000649  0.08854708     0.10410
C218        C  0.15981599  0.60853010  0.08033789    -0.06720
C219        C  0.14876958  0.57603046  0.10884929    -0.17950
C220        C  0.16195824  0.56082888  0.14315943     0.10440
S221        S  0.19867491  0.67671953  0.05705491    -0.32920
S222        S  0.14661500  0.51617328  0.17608829    -0.32920
H223        H  0.16717352  0.48249627  0.17908085     0.28450
H224        H  0.17655714  0.69990631  0.04355483     0.28440
H225        H  0.21461262  0.63275813  0.12791899     0.19030
H226        H  0.13014566  0.56073034  0.10356905     0.19040
C227        C  0.18702438  0.58096478  0.36113853    -0.06790
C228        C  0.19591495  0.61962133  0.38727458    -0.17920
C229        C  0.18294561  0.63334873  0.42188120     0.10410
C230        C  0.16040240  0.60793479  0.43137088    -0.06720
C231        C  0.15037081  0.57184595  0.40419790    -0.17950
C232        C  0.16333412  0.55827325  0.36914929     0.10440
S233        S  0.19516128  0.68414680  0.45352561    -0.32920
S234        S  0.14952600  0.50948294  0.33761901    -0.32920
H235        H  0.15081035  0.54040400  0.30349767     0.28450
H236        H  0.21733273  0.69347443  0.93215177     0.28440
H237        H  0.21340242  0.63899293  0.38069727     0.19030
H238        H  0.13271725  0.55302196  0.41090251     0.19040
C239        C  0.31019526  0.59819343  0.14901161    -0.06790
C240        C  0.33634531  0.60406913  0.15223860    -0.17920
C241        C  0.35128669  0.61422661  0.11849433     0.10410
C242        C  0.33974001  0.62184826  0.08098554    -0.06720
C243        C  0.31359990  0.62260073  0.07934577    -0.17950
C244        C  0.29885697  0.61162626  0.11227422     0.10440
S245        S  0.38476259  0.61043773  0.12471096    -0.32920
S246        S  0.26560179  0.61556827  0.10400815    -0.32920
H247        H  0.26188785  0.64959079  0.13631727     0.28450
H248        H  0.38944736  0.58784427  0.08733938     0.28440
H249        H  0.34542312  0.59550185  0.18014105     0.19030
H250        H  0.30434271  0.63196306  0.05171859     0.19040
C251        C  0.31118692  0.59126680  0.36317809    -0.06500
C252        C  0.33749951  0.58895660  0.36182177    -0.17920
C253        C  0.35218183  0.59715504  0.39611877     0.10410
C254        C  0.34048917  0.61059866  0.43263493    -0.06720
C255        C  0.31441263  0.61556959  0.43328530    -0.17950
C256        C  0.29980314  0.60669754  0.39969951     0.10440
S257        S  0.38541573  0.58626978  0.39167537    -0.32920
S258        S  0.26665542  0.61675803  0.40672308    -0.32920
H259        H  0.26485966  0.65165658  0.37497900     0.28450
H260        H  0.38870588  0.56913308  0.43081181     0.28440
H261        H  0.34668565  0.57812915  0.33432153     0.19030
H262        H  0.30514387  0.62797803  0.46036215     0.19040
C263        C  0.31034765  0.40014346  0.12129537    -0.06790
C264        C  0.30873620  0.34675115  0.11270913    -0.17920
C265        C  0.32699763  0.32173169  0.08992175     0.10410
C266        C  0.34745803  0.35064467  0.07541483    -0.06720
C267        C  0.35030679  0.40235112  0.08705413    -0.17950
C268        C  0.33229930  0.42672491  0.11043876     0.10440
S269        S  0.32239164  0.25373051  0.07917061    -0.32920
S270        S  0.33940743  0.49028624  0.12724079    -0.32920
H271        H  0.32916814  0.48298901  0.16522758     0.28450
H272        H  0.33161622  0.25405755  0.04023274     0.28440
H273        H  0.29258968  0.32466654  0.12241599     0.19030
H274        H  0.36618681  0.42451544  0.07631596     0.19040
C275        C  0.34485312  0.34903020  0.43402466    -0.06790
C276        C  0.35253134  0.39071839  0.41058990    -0.17920
C277        C  0.33515684  0.41807891  0.38778853     0.10410
C278        C  0.30941072  0.40576695  0.39093924    -0.06720
C279        C  0.30213871  0.36232702  0.41274586    -0.17950
C280        C  0.31956646  0.33315357  0.43333191     0.10440
S281        S  0.34735669  0.46647883  0.35498830    -0.32920
S282        S  0.30807622  0.27845390  0.46100526    -0.32920
H283        H  0.33068451  0.25065515  0.96016355     0.28450
H284        H  0.32655073  0.46930212  0.32984467     0.28440
H285        H  0.37195816  0.40305098  0.41113878     0.19030
H286        H  0.28259492  0.35071942  0.41348314     0.19040
C287        C  0.19392150  0.39751633  0.12249956    -0.06790
C288        C  0.17692348  0.43106113  0.10425011    -0.17920
C289        C  0.15643303  0.41181726  0.08316683     0.10410
C290        C  0.15367643  0.35775463  0.07775973    -0.06720
C291        C  0.16934925  0.32407260  0.09827391    -0.17950
C292        C  0.18930718  0.34316726  0.12075713     0.10440
S293        S  0.13571394  0.45783448  0.06014570    -0.32920
S294        S  0.20984812  0.29545192  0.14186813    -0.32920
H295        H  0.20152959  0.30598438  0.18068278     0.28450
H296        H  0.11549668  0.42323703  0.05559311     0.28440
H297        H  0.17981447  0.47250051  0.10578783     0.19030
H298        H  0.16753142  0.28260916  0.09368970     0.19040
C299        C  0.15356557  0.36373632  0.43377604    -0.06790
C300        C  0.15948475  0.41679816  0.43689978    -0.17920
C301        C  0.18114748  0.43636567  0.41960449     0.10410
C302        C  0.19378758  0.40662679  0.39044987    -0.06720
C303        C  0.18466526  0.35642780  0.38161335    -0.17950
C304        C  0.16573280  0.33372548  0.40436677     0.10440
S305        S  0.19385040  0.49417035  0.44225042    -0.32920
S306        S  0.15999652  0.26552366  0.39689126    -0.32920
H307        H  0.16377074  0.25286261  0.43693945     0.28450
H308        H  0.21739290  0.47164995  0.44938279     0.28440
H309        H  0.15008885  0.44044024  0.45911171     0.19030
H310        H  0.19368909  0.33280013  0.35914207     0.19040
C311        C  0.09278458  0.15990698  0.32006676    -0.06790
C312        C  0.10085682  0.13676222  0.35516063    -0.17920
C313        C  0.08361330  0.11372922  0.38095080     0.10410
C314        C  0.05792443  0.11269901  0.37056475    -0.06720
C315        C  0.04984321  0.13862564  0.33675088    -0.17950
C316        C  0.06685691  0.16315850  0.31191133     0.10440
S317        S  0.09588622  0.08629064  0.42582393    -0.32920
S318        S  0.05440961  0.19596241  0.26912798    -0.32920
H319        H  0.07437499  0.23111691  0.26518096     0.28450
H320        H  0.07490385  0.05643348  0.43559782     0.28440
H321        H  0.12072950  0.13440602  0.36149758     0.19030
H322        H  0.03002887  0.13993417  0.32970506     0.19040
C323        C  0.10625891  0.13594757  0.18197815    -0.06790
C324        C  0.09099980  0.17115069  0.16206314    -0.17920
C325        C  0.06993929  0.15452998  0.14109775     0.10410
C326        C  0.06387434  0.10080205  0.13927102    -0.06720
C327        C  0.08068400  0.06528726  0.15604286    -0.17950
C328        C  0.10197234  0.08227564  0.17665458     0.10440
S329        S  0.05019123  0.20503589  0.12196848    -0.32920
S330        S  0.12200681  0.03420067  0.19862450    -0.32920
H331        H  0.14276128  0.06725606  0.20373304     0.28450
H332        H  0.05721501  0.19450665  0.08254655     0.28440
H333        H  0.09387516  0.21240593  0.16644438     0.19030
H334        H  0.07699984  0.02414654  0.15384127     0.19040
C335        C  0.06622850  0.14732201  0.00656617    -0.06790
C336        C  0.05771660  0.19432864  0.49054156    -0.17920
C337        C  0.07298134  0.23818037  0.48935368     0.10410
C338        C  0.09762132  0.23518057  0.50389334    -0.06720
C339        C  0.10641575  0.18824713  0.01925083    -0.17950
C340        C  0.09102901  0.14448765  0.02110188     0.10440
S341        S  0.05961027  0.29693441  0.47002946    -0.32920
S342        S  0.10424135  0.08742230  0.04319182    -0.32920
H343        H  0.08258510  0.07371511  0.06422937     0.28450
H344        H  0.07290723  0.33104942  0.49502670     0.28440
H345        H  0.03878759  0.19729624  0.47918997     0.19030
H346        H  0.12541729  0.18594903  0.03043974     0.19040
C347        C  0.44346339  0.11335000  0.37558510    -0.06790
C348        C  0.42384293  0.08103699  0.36288207    -0.17920
C349        C  0.40350811  0.10113946  0.34194274     0.10410
C350        C  0.40292894  0.15445551  0.33273862    -0.06720
C351        C  0.42125598  0.18741955  0.34855858    -0.17950
C352        C  0.44170413  0.16758321  0.36934699     0.10440
S353        S  0.37975697  0.05659560  0.32476795    -0.32920
S354        S  0.46682763  0.21160940  0.38267334    -0.32920
H355        H  0.45365487  0.25795901  0.37622262     0.28450
H356        H  0.36128398  0.09446272  0.31847169     0.28440
H357        H  0.42453376  0.03988951  0.36869365     0.19030
H358        H  0.42111804  0.22797102  0.34051735     0.19040
C359        C  0.40997640  0.15651259  0.19143026    -0.06790
C360        C  0.43385981  0.17871744  0.18886059    -0.17920
C361        C  0.45311513  0.15361419  0.16853909     0.10410
C362        C  0.44829485  0.10592586  0.14916342    -0.06720
C363        C  0.42423205  0.08414001  0.15087061    -0.17950
C364        C  0.40496230  0.10934343  0.17159904     0.10440
S365        S  0.48391495  0.18257889  0.17075091    -0.32920
S366        S  0.37449154  0.07939514  0.17291789    -0.32920
H367        H  0.36104564  0.12529471  0.18037572     0.28450
H368        H  0.49726456  0.13560012  0.17004229     0.28440
H369        H  0.43805244  0.21376168  0.20554557     0.19030
H370        H  0.42036101  0.04796639  0.13559270     0.19040
C371        C  0.40480731  0.23110784  0.50274560    -0.06790
C372        C  0.39655556  0.18376892  0.01820855    -0.17920
C373        C  0.41272181  0.14149592  0.02122195     0.10410
C374        C  0.43773831  0.14634119  0.50776504    -0.06720
C375        C  0.44572867  0.19378033  0.49173071    -0.17950
C376        C  0.42966323  0.23615374  0.48935949     0.10440
S377        S  0.40036900  0.08381176  0.04396093    -0.32920
S378        S  0.44222388  0.29575014  0.46989623    -0.32920
H379        H  0.42787715  0.32922466  0.49387235     0.28450
H380        H  0.42207307  0.07363924  0.06599900     0.28440
H381        H  0.37743751  0.18012944  0.02878648     0.19030
H382        H  0.46478999  0.19817170  0.48112095     0.19040
C383        C  0.43935969  0.93590462  0.39490742    -0.06790
C384        C  0.41305473  0.93420512  0.39876751    -0.17920
C385        C  0.39725812  0.92449628  0.36576269     0.10410
C386        C  0.40784556  0.91379746  0.32781821    -0.06720
C387        C  0.43399911  0.91460040  0.32454399    -0.17950
C388        C  0.44962418  0.92748874  0.35632259     0.10440
S389        S  0.36397116  0.92873499  0.37411079    -0.32920
S390        S  0.48259481  0.93456350  0.34496582    -0.32920
H391        H  0.48045797  0.93869706  0.30352399     0.28450
H392        H  0.35799749  0.94571125  0.33576595     0.28440
H393        H  0.40466128  0.94172719  0.42750452     0.19030
H394        H  0.44255876  0.90473915  0.29638169     0.19040
C395        C  0.40789593  0.90819746  0.18044644    -0.06790
C396        C  0.43297596  0.89259436  0.18002754    -0.17920
C397        C  0.44832739  0.89955720  0.14688626     0.10410
C398        C  0.43915805  0.92583027  0.11288436    -0.06720
C399        C  0.41362325  0.93994821  0.11271219    -0.17950
C400        C  0.39790211  0.93087281  0.14576976     0.10440
S401        S  0.47924684  0.87209789  0.15043261    -0.32920
S402        S  0.36549865  0.94960697  0.14190656    -0.32920
H403        H  0.36150905  0.95841022  0.18260611     0.28450
H404        H  0.47774306  0.84703484  0.11335543     0.28440
H405        H  0.44062143  0.87339147  0.20580494     0.19030
H406        H  0.40595394  0.95939335  0.08710911     0.19040
C407        C  0.44440815  0.78951530  0.00218079    -0.06790
C408        C  0.42305616  0.80017774  0.47952131    -0.17920
C409        C  0.40222645  0.76735705  0.48051001     0.10410
C410        C  0.40312751  0.72188678  0.00363294    -0.06720
C411        C  0.42459233  0.71125502  0.02605259    -0.17950
C412        C  0.44525360  0.74429867  0.02539834     0.10440
S413        S  0.37481611  0.78717072  0.45332384    -0.32920
S414        S  0.47245991  0.72546845  0.05352057    -0.32920
H415        H  0.49012496  0.74438118  0.02619822     0.28450
H416        H  0.35733945  0.76553763  0.47972187     0.28440
H417        H  0.42226370  0.83527241  0.46210156     0.19030
H418        H  0.42548040  0.67620013  0.04349059     0.19040
C419        C  0.06499196  0.92816359  0.39812686    -0.06790
C420        C  0.08872152  0.95149892  0.39427892    -0.17920
C421        C  0.10328951  0.94473270  0.35975332     0.10410
C422        C  0.09430451  0.91273209  0.32864639    -0.06720
C423        C  0.07163878  0.88630496  0.33381522    -0.17950
C424        C  0.05713675  0.89285018  0.36812825     0.10440
S425        S  0.13265867  0.97910774  0.35675484    -0.32920
S426        S  0.02955175  0.85288655  0.37391135    -0.32920
H427        H  0.02930772  0.83119090  0.33551416     0.28450
H428        H  0.13328001  0.98307871  0.31521764     0.28440
H429        H  0.09562087  0.97653295  0.41765971     0.19030
H430        H  0.06547944  0.85969433  0.31082144     0.19040
C431        C  0.06496863  0.92469808  0.11045691    -0.06790
C432        C  0.05318210  0.90398500  0.14425582    -0.17920
C433        C  0.06629144  0.89287323  0.17883337     0.10410
C434        C  0.09210776  0.90417515  0.18119116    -0.06720
C435        C  0.10445461  0.92193810  0.14694045    -0.17950
C436        C  0.09131410  0.93156186  0.11155562     0.10440
S437        S  0.04884049  0.86262256  0.21833018    -0.32920
S438        S  0.10929277  0.95281702  0.06956346    -0.32920
H439        H  0.09707024  0.91978676  0.04242536     0.28450
H440        H  0.06863165  0.83103020  0.23118362     0.28440
H441        H  0.03324316  0.89640433  0.14412283     0.19030
H442        H  0.12447342  0.92895353  0.14790394     0.19040
C443        C  0.05746478  0.78473609  0.00114042    -0.06790
C444        C  0.07892863  0.79401800  0.02404123    -0.17920
C445        C  0.09848451  0.75804886  0.02525911     0.10410
C446        C  0.09610269  0.71008688  0.00485518    -0.06720
C447        C  0.07441307  0.70058063  0.48238014    -0.17950
C448        C  0.05528050  0.73748751  0.48002537     0.10440
S449        S  0.12647251  0.77706765  0.05145910    -0.32920
S450        S  0.02765825  0.72081060  0.45220161    -0.32920
H451        H  0.03188341  0.75963465  0.42400522     0.28450
H452        H  0.14283452  0.75565775  0.02304575     0.28440
H453        H  0.08075272  0.83022231  0.04027677     0.19030
H454        H  0.07232573  0.66403213  0.46668065     0.19040
O455        O  0.47313339  0.04574337  0.88730763    -0.88850
C456        C  0.03733487  0.82384878  0.50158875     1.11190
O457        O  0.00194191  0.02913195  0.96574747    -1.36650
O458        O  0.47284960  0.84369220  0.96921464    -0.90330
O459        O  0.47417527  0.11735673  0.92460017    -0.91000
O460        O  0.44939708  0.05712757  0.00764040    -0.79820
O461        O  0.47842431  0.94360581  0.92688835    -1.01900
C462        C  0.45633513  0.94239701  0.57977874     1.21240
O463        O  0.50222306  0.02631382  0.54788199    -1.36800
Mn464      Mn  0.02943132  0.99581944  0.50555956     1.82060
O465        O  0.44884021  0.96337589  0.54832787    -0.78890
O466        O  0.47398403  0.84076683  0.53568215    -0.88290
C467        C  0.04819473  0.94169538  0.57745650     1.12320
C468        C  0.46500997  0.82703260  0.50234260     1.07050
O469        O  0.05508211  0.05724306  0.50653010    -0.79830
O470        O  0.00190559  0.93457615  0.50438594    -1.33520
O471        O  0.02594863  0.11252986  0.50862964    -0.99040
C472        C  0.46735384  0.08284257  0.62323455     1.05760
Mn473      Mn  0.50202960  0.88981898  0.55659339     1.48570
O474        O  0.47570392  0.11159258  0.59606683    -0.88240
Mn475      Mn  0.00212241  0.11155167  0.96573132     1.49560
O476        O  0.03004590  0.04486243  0.88635525    -0.92120
C477        C  0.45590997  0.94817483  0.93006274     1.18960
C478        C  0.03843318  0.08965383  0.89529098     1.11010
Mn479      Mn  0.47453091  0.99563858  0.00615925     1.80970
O480        O  0.02566521  0.93766004  0.58177057    -0.97270
Mn481      Mn  0.50176794  0.99602081  0.90824645     1.49260
C482        C  0.46493048  0.09054290  0.89685745     1.07530
Mn483      Mn  0.00293062  0.98941653  0.60378860     1.49930
C484        C  0.04102279  0.08102391  0.61885695     1.10440
O485        O  0.47845014  0.11333718  0.00967695    -1.03070
O486        O  0.02968985  0.83989137  0.53520699    -0.92730
C487        C  0.45605462  0.10359790  0.00916397     1.21720
O488        O  0.47890849  0.93814544  0.58353028    -1.03460
O489        O  0.02867694  0.83990070  0.96875348    -0.90860
O490        O  0.03241708  0.03604684  0.62660397    -0.90470
O491        O  0.02982216  0.11747134  0.92311754    -0.90490
Mn492      Mn  0.00131512  0.89277982  0.95011793     1.47860
O493        O  0.05547069  0.96369579  0.54643879    -0.78960
C494        C  0.04833053  0.10361157  0.50773174     1.14770
O495        O  0.44825247  0.96634844  0.96269087    -0.77690
O496        O  0.05492814  0.96566954  0.96247763    -0.77310
Mn497      Mn  0.50267133  0.10826185  0.55253043     1.51060
O498        O  0.47522497  0.03712562  0.62954353    -0.89660
O499        O  0.02507737  0.94166769  0.92575211    -0.97190
O500        O  0.03120551  0.10996724  0.59328343    -0.92200
C501        C  0.04760858  0.94500154  0.93063326     1.12560
C502        C  0.11464853  0.28004771  0.00424893     0.02460
C503        C  0.12292603  0.30230946  0.96843251    -0.13690
C504        C  0.14177668  0.34032797  0.96927809    -0.00040
C505        C  0.15146774  0.35597914  0.00588868    -0.12210
C506        C  0.14187455  0.33780251  0.54138468     0.02450
C507        C  0.12393468  0.29843457  0.54079835    -0.11630
H508        H  0.11538502  0.28881488  0.94039613     0.08050
H509        H  0.16718093  0.38270044  0.00702949     0.05580
H510        H  0.11748480  0.28176205  0.56840462     0.05430
C511        C  0.38732938  0.27492803  0.00279773     0.02460
C512        C  0.37794693  0.29469550  0.96695006    -0.13690
C513        C  0.36020398  0.33461312  0.96811038    -0.00040
C514        C  0.35281360  0.35565524  0.00431513    -0.12210
C515        C  0.36089897  0.33429139  0.53970964     0.02450
C516        C  0.37847972  0.29434903  0.53926844    -0.11630
H517        H  0.38332385  0.27734313  0.93883720     0.08050
H518        H  0.33847520  0.38548241  0.00494599     0.05580
H519        H  0.38454957  0.27733457  0.56691762     0.05430
C520        C  0.38257345  0.68370726  0.50449024     0.02460
C521        C  0.37341613  0.66178668  0.46915196    -0.13690
C522        C  0.35418262  0.62481110  0.46993340    -0.00040
C523        C  0.34503455  0.60848997  0.50715640    -0.12210
C524        C  0.35344692  0.63152176  0.54295929     0.02450
C525        C  0.37221815  0.66932208  0.54103834    -0.11630
H526        H  0.38059953  0.67529904  0.94102970     0.08050
H527        H  0.33015982  0.57988826  0.50809825     0.05580
H528        H  0.37822214  0.68921081  0.56779562     0.05430
C529        C  0.11606790  0.67004564  0.50552747     0.02460
C530        C  0.12653967  0.65251947  0.96958780    -0.13690
C531        C  0.14728053  0.61936884  0.96939870    -0.00040
C532        C  0.15737939  0.60294673  0.50580699    -0.12210
C533        C  0.14680601  0.61934738  0.54216528     0.02450
C534        C  0.12578549  0.65194949  0.54168000    -0.11630
H535        H  0.11947305  0.66714412  0.94171225     0.08050
H536        H  0.17411647  0.57924901  0.50588285     0.05580
H537        H  0.11789969  0.66563753  0.56947094     0.05430
O538        O  0.22461116  0.39394656  0.67171915    -0.88850
C539        C  0.28970807  0.42944144  0.86701736     1.11190
O540        O  0.25179751  0.48237730  0.71430684    -1.36650
O541        O  0.22516905  0.39718705  0.84176911    -0.90330
O542        O  0.22403092  0.46473376  0.63444807    -0.91000
O543        O  0.19719861  0.54072647  0.71339800    -0.79820
O544        O  0.22938921  0.39612759  0.75623841    -1.01900
C545        C  0.20440210  0.56376939  0.82876274     1.21240
O546        O  0.24984834  0.57658508  0.75483834    -1.36800
Mn547      Mn  0.27895175  0.51775886  0.75483062     1.82050
O548        O  0.19756710  0.54105505  0.79753539    -0.78890
O549        O  0.22429533  0.47141271  0.87545324    -0.88290
C550        C  0.29575462  0.57310557  0.82850246     1.12320
C551        C  0.21583693  0.42634705  0.86821915     1.07050
O552        O  0.30411277  0.55302111  0.71231623    -0.79830
O553        O  0.25198464  0.48381666  0.79600879    -1.33520
O554        O  0.27272555  0.57153841  0.67857018    -0.99040
C555        C  0.21158401  0.68466221  0.75408939     1.05760
Mn556      Mn  0.25159368  0.52053191  0.85212658     1.48570
O557        O  0.22007774  0.66864272  0.72092622    -0.88240
Mn558      Mn  0.25132142  0.51626345  0.65772194     1.49560
O559        O  0.27975556  0.39639524  0.66983298    -0.92120
C560        C  0.20685775  0.40253722  0.75633387     1.18960
C561        C  0.28945726  0.42443150  0.64357072     1.11010
Mn562      Mn  0.22374556  0.51234810  0.75520593     1.80970
O563        O  0.27320924  0.57403600  0.83106538    -0.97270
Mn564      Mn  0.25266951  0.40017064  0.71256247     1.49260
C565        C  0.21560263  0.42013477  0.64385558     1.07530
Mn566      Mn  0.24902345  0.62135639  0.80737429     1.49930
C567        C  0.28434368  0.68939276  0.75398886     1.10440
O568        O  0.22650016  0.56724650  0.67686080    -1.03070
O569        O  0.28144327  0.47484152  0.87468665    -0.92730
C570        C  0.20403342  0.56152005  0.68159400     1.21720
O571        O  0.22681896  0.57069203  0.83301989    -1.03460
O572        O  0.28060591  0.40002976  0.84077125    -0.90860
O573        O  0.27639527  0.67338088  0.78731110    -0.90470
O574        O  0.28154501  0.46999224  0.63576258    -0.90490
Mn575      Mn  0.25302268  0.40182244  0.79923132     1.47860
O576        O  0.30434582  0.55244988  0.79735926    -0.78960
C577        C  0.29521449  0.57346525  0.68156626     1.14770
O578        O  0.19914177  0.44832629  0.75535837    -0.77690
O579        O  0.30547420  0.45675582  0.75452054    -0.77310
Mn580      Mn  0.24868428  0.61934520  0.70166861     1.51060
O581        O  0.21999067  0.66981740  0.78750880    -0.89660
O582        O  0.27678168  0.39979337  0.75544601    -0.97190
O583        O  0.27582874  0.67305102  0.72090498    -0.92200
C584        C  0.29910712  0.40970302  0.75450798     1.12560
C585        C  0.13916825  0.22712070  0.75328656     0.02460
C586        C  0.13442466  0.19969126  0.71778727    -0.13690
C587        C  0.11869630  0.15589468  0.71810177    -0.00040
C588        C  0.10840200  0.13964743  0.75392716    -0.12210
C589        C  0.11095505  0.16951144  0.78821484     0.02450
C590        C  0.12712108  0.21224076  0.78854013    -0.11630
H591        H  0.14203268  0.21356678  0.69000453     0.08050
H592        H  0.09512931  0.10772421  0.75403724     0.05580
H593        H  0.12918013  0.23547600  0.81525323     0.05430
C594        C  0.36455581  0.84244741  0.75456133     0.02460
C595        C  0.37436978  0.86033958  0.71827560    -0.13690
C596        C  0.39335429  0.89801178  0.71756203    -0.00040
C597        C  0.40191645  0.91901432  0.75370713    -0.12210
C598        C  0.39338359  0.90026331  0.79066056     0.02450
C599        C  0.37427910  0.86247825  0.79054653    -0.11630
H600        H  0.36811448  0.84300076  0.69062762     0.08050
H601        H  0.41672360  0.94778236  0.75289254     0.05580
H602        H  0.36763095  0.84701007  0.81835712     0.05430
C603        C  0.13867175  0.85020381  0.75494696     0.02460
C604        C  0.12719451  0.86376697  0.71902559    -0.13690
C605        C  0.10633808  0.89665441  0.71866591    -0.00040
C606        C  0.09741671  0.91727968  0.75481151    -0.12210
C607        C  0.10815054  0.90275435  0.79110089     0.02450
C608        C  0.12901454  0.86983972  0.79090664    -0.11630
H609        H  0.13347721  0.84596394  0.69155067     0.08050
H610        H  0.08095322  0.94179819  0.75494317     0.05580
H611        H  0.13679668  0.85704534  0.81883488     0.05430
C612        C  0.37012322  0.24041986  0.75857207     0.02460
C613        C  0.37982844  0.21886463  0.72332602    -0.13690
C614        C  0.39442283  0.17393392  0.72480678    -0.00040
C615        C  0.39880614  0.15011620  0.76095766    -0.12210
C616        C  0.39053932  0.17251389  0.79637728     0.02450
C617        C  0.37603024  0.21788437  0.79529162    -0.11630
H618        H  0.37654200  0.23760667  0.69516383     0.08050
H619        H  0.41131837  0.11701624  0.76181420     0.05580
H620        H  0.36981112  0.23596672  0.82269211     0.05430
C621        C  0.15816150  0.80930898  0.75522247    -0.06790
C622        C  0.15369714  0.76479546  0.77786052    -0.17920
C623        C  0.17012103  0.72269390  0.77682877     0.10410
C624        C  0.19201973  0.72511718  0.75344477    -0.06720
C625        C  0.19629355  0.76920760  0.73022660    -0.17950
C626        C  0.17985374  0.81140971  0.73116485     0.10440
S627        S  0.16092530  0.66577066  0.80347839    -0.32920
S628        S  0.18820406  0.86731118  0.70217338    -0.32920
H629        H  0.17697142  0.90400047  0.72758546     0.28450
H630        H  0.17152344  0.63056044  0.77622052     0.28440
H631        H  0.13669411  0.76193039  0.79534632     0.19030
H632        H  0.21304613  0.77155081  0.71213120     0.19040
C633        C  0.30455340  0.72892731  0.75389240    -0.06790
C634        C  0.32578187  0.72104605  0.77761667    -0.17920
C635        C  0.34593983  0.75605991  0.77747356     0.10410
C636        C  0.34456705  0.80173904  0.75441665    -0.06720
C637        C  0.32327274  0.80936749  0.73064562    -0.17950
C638        C  0.30338185  0.77378674  0.73018868     0.10440
S639        S  0.37335528  0.73814108  0.80537905    -0.32920
S640        S  0.27651164  0.78910719  0.70015944    -0.32920
H641        H  0.25878283  0.76996659  0.72725930     0.28450
H642        H  0.39067025  0.76035031  0.77898789     0.28440
H643        H  0.32706809  0.68629408  0.79535128     0.19030
H644        H  0.32183227  0.84408667  0.71293922     0.19040
C645        C  0.18954947  0.35732674  0.75641984    -0.06790
C646        C  0.16546286  0.36303983  0.74022060    -0.17920
C647        C  0.14863752  0.32131605  0.73841940     0.10410
C648        C  0.15584232  0.27274184  0.75359909    -0.06720
C649        C  0.17969811  0.26682888  0.76986903    -0.17950
C650        C  0.19679722  0.30802614  0.77102855     0.10440
S651        S  0.11848123  0.33250184  0.71600804    -0.32920
S652        S  0.22754729  0.29608529  0.79155095    -0.32920
H653        H  0.22389811  0.24386722  0.80176246     0.28450
H654        H  0.10520577  0.29508865  0.73759350     0.28440
H655        H  0.15979753  0.40007939  0.72831420     0.19030
H656        H  0.18496065  0.22930558  0.78128878     0.19040
C657        C  0.31769602  0.36668864  0.75339756    -0.06790
C658        C  0.34219293  0.37584451  0.76713881    -0.17920
C659        C  0.35985292  0.33571668  0.76923076     0.10410
C660        C  0.35311607  0.28533334  0.75650993    -0.06720
C661        C  0.32910999  0.27636253  0.74158369    -0.17950
C662        C  0.31126140  0.31589860  0.74005397     0.10440
S663        S  0.39044449  0.35119841  0.78871102    -0.32920
S664        S  0.28057324  0.29950608  0.72086093    -0.32920
H665        H  0.28645495  0.24998402  0.70583254     0.28450
H666        H  0.40358196  0.31206955  0.76829266     0.28440
H667        H  0.34756512  0.41433534  0.77683078     0.19030
H668        H  0.32421237  0.23753563  0.73190932     0.19040
C669        C  0.18665737  0.57947353  0.64965883    -0.06790
C670        C  0.19644106  0.61549120  0.62261285    -0.17920
C671        C  0.18355977  0.63000646  0.58854708     0.10410
C672        C  0.15981600  0.60853007  0.58033788    -0.06720
C673        C  0.14876958  0.57603045  0.60884928    -0.17950
C674        C  0.16195823  0.56082889  0.64315943     0.10440
S675        S  0.19867492  0.67671949  0.55705490    -0.32920
S676        S  0.14661499  0.51617328  0.67608830    -0.32920
H677        H  0.16717352  0.48249628  0.67908085     0.28450
H678        H  0.17655715  0.69990627  0.54355481     0.28440
H679        H  0.21461262  0.63275813  0.62791899     0.19030
H680        H  0.13014566  0.56073033  0.60356904     0.19040
C681        C  0.18702437  0.58096480  0.86113856    -0.06790
C682        C  0.19591494  0.61962134  0.88727460    -0.17920
C683        C  0.18294560  0.63334875  0.92188122     0.10410
C684        C  0.16040238  0.60793482  0.93137089    -0.06720
C685        C  0.15037079  0.57184598  0.90419792    -0.17950
C686        C  0.16333411  0.55827327  0.86914931     0.10440
S687        S  0.19516128  0.68414682  0.95352563    -0.32920
S688        S  0.14952599  0.50948296  0.83761903    -0.32920
H689        H  0.15081034  0.54040402  0.80349769     0.28450
H690        H  0.21733273  0.69347443  0.43215174     0.28440
H691        H  0.21340242  0.63899294  0.88069729     0.19030
H692        H  0.13271724  0.55302199  0.91090252     0.19040
C693        C  0.31019525  0.59819336  0.64901161    -0.06790
C694        C  0.33634530  0.60406907  0.65223860    -0.17920
C695        C  0.35128668  0.61422653  0.61849432     0.10410
C696        C  0.33974000  0.62184816  0.58098553    -0.06720
C697        C  0.31359989  0.62260060  0.57934576    -0.17950
C698        C  0.29885696  0.61162614  0.61227420     0.10440
S699        S  0.38476258  0.61043769  0.62471096    -0.32920
S700        S  0.26560178  0.61556812  0.60400813    -0.32920
H701        H  0.26188784  0.64959069  0.63631722     0.28450
H702        H  0.38944736  0.58784422  0.58733938     0.28440
H703        H  0.34542311  0.59550183  0.68014105     0.19030
H704        H  0.30434270  0.63196292  0.55171857     0.19040
C705        C  0.31118691  0.59126681  0.86317811    -0.06500
C706        C  0.33749950  0.58895663  0.86182178    -0.17920
C707        C  0.35218183  0.59715508  0.89611878     0.10410
C708        C  0.34048917  0.61059870  0.93263494    -0.06720
C709        C  0.31441263  0.61556961  0.93328532    -0.17950
C710        C  0.29980314  0.60669754  0.89969953     0.10440
S711        S  0.38541572  0.58626984  0.89167537    -0.32920
S712        S  0.26665541  0.61675799  0.90672311    -0.32920
H713        H  0.26485964  0.65165655  0.87497905     0.28450
H714        H  0.38870588  0.56913313  0.93081180     0.28440
H715        H  0.34668564  0.57812918  0.83432154     0.19030
H716        H  0.30514386  0.62797804  0.96036217     0.19040
C717        C  0.31034763  0.40014347  0.62129541    -0.06790
C718        C  0.30873614  0.34675120  0.61270906    -0.17920
C719        C  0.32699757  0.32173172  0.58992170     0.10410
C720        C  0.34745801  0.35064467  0.57541488    -0.06720
C721        C  0.35030681  0.40235107  0.58705428    -0.17950
C722        C  0.33229933  0.42672486  0.61043893     0.10440
S723        S  0.32239154  0.25373057  0.57917048    -0.32920
S724        S  0.33940753  0.49028604  0.62724122    -0.32920
H725        H  0.32916812  0.48298872  0.66522791     0.28450
H726        H  0.33161626  0.25405756  0.54023270     0.28440
H727        H  0.29258959  0.32466662  0.62241584     0.19030
H728        H  0.36618687  0.42451536  0.57631620     0.19040
C729        C  0.34485312  0.34903016  0.93402460    -0.06790
C730        C  0.35253133  0.39071837  0.91058987    -0.17920
C731        C  0.33515683  0.41807891  0.88778852     0.10410
C732        C  0.30941071  0.40576692  0.89093924    -0.06720
C733        C  0.30213871  0.36232697  0.91274584    -0.17950
C734        C  0.31956647  0.33315351  0.93333186     0.10440
S735        S  0.34735666  0.46647887  0.85498832    -0.32920
S736        S  0.30807624  0.27845382  0.96100519    -0.32920
H737        H  0.33068449  0.25065521  0.46016362     0.28450
H738        H  0.32655071  0.46930213  0.82984468     0.28440
H739        H  0.37195815  0.40305097  0.91113876     0.19030
H740        H  0.28259492  0.35071935  0.91348312     0.19040
C741        C  0.19392149  0.39751635  0.62249956    -0.06790
C742        C  0.17692348  0.43106116  0.60425009    -0.17920
C743        C  0.15643303  0.41181729  0.58316680     0.10410
C744        C  0.15367643  0.35775466  0.57775971    -0.06720
C745        C  0.16934924  0.32407263  0.59827391    -0.17950
C746        C  0.18930716  0.34316728  0.62075714     0.10440
S747        S  0.13571396  0.45783451  0.56014564    -0.32920
S748        S  0.20984809  0.29545194  0.64186816    -0.32920
H749        H  0.20152955  0.30598442  0.68068280     0.28450
H750        H  0.11549669  0.42323707  0.55559305     0.28440
H751        H  0.17981447  0.47250054  0.60578781     0.19030
H752        H  0.16753140  0.28260919  0.59368970     0.19040
C753        C  0.15356555  0.36373633  0.93377607    -0.06790
C754        C  0.15948474  0.41679816  0.93689981    -0.17920
C755        C  0.18114746  0.43636567  0.91960452     0.10410
C756        C  0.19378756  0.40662680  0.89044990    -0.06720
C757        C  0.18466524  0.35642781  0.88161337    -0.17950
C758        C  0.16573278  0.33372548  0.90436679     0.10440
S759        S  0.19385038  0.49417036  0.94225044    -0.32920
S760        S  0.15999650  0.26552367  0.89689128    -0.32920
H761        H  0.16377072  0.25286261  0.93693946     0.28450
H762        H  0.21739288  0.47164996  0.94938282     0.28440
H763        H  0.15008883  0.44044024  0.95911174     0.19030
H764        H  0.19368907  0.33280014  0.85914209     0.19040
C765        C  0.09278455  0.15990704  0.82006681    -0.06790
C766        C  0.10085679  0.13676225  0.85516066    -0.17920
C767        C  0.08361327  0.11372923  0.88095083     0.10410
C768        C  0.05792440  0.11269905  0.87056478    -0.06720
C769        C  0.04984318  0.13862572  0.83675093    -0.17950
C770        C  0.06685688  0.16315858  0.81191139     0.10440
S771        S  0.09588619  0.08629062  0.92582395    -0.32920
S772        S  0.05440958  0.19596253  0.76912805    -0.32920
H773        H  0.07437497  0.23111702  0.76518105     0.28450
H774        H  0.07490382  0.05643347  0.93559783     0.28440
H775        H  0.12072947  0.13440603  0.86149760     0.19030
H776        H  0.03002884  0.13993426  0.82970512     0.19040
C777        C  0.10625890  0.13594759  0.68197819    -0.06790
C778        C  0.09099980  0.17115070  0.66206316    -0.17920
C779        C  0.06993930  0.15452999  0.64109774     0.10410
C780        C  0.06387435  0.10080206  0.63927101    -0.06720
C781        C  0.08068400  0.06528728  0.65604289    -0.17950
C782        C  0.10197233  0.08227567  0.67665463     0.10440
S783        S  0.05019125  0.20503590  0.62196844    -0.32920
S784        S  0.12200679  0.03420070  0.69862459    -0.32920
H785        H  0.14276126  0.06725608  0.70373315     0.28450
H786        H  0.05721504  0.19450662  0.58254651     0.28440
H787        H  0.09387516  0.21240595  0.66644439     0.19030
H788        H  0.07699985  0.02414655  0.65384130     0.19040
C789        C  0.06622853  0.14732201  0.50656614    -0.06790
C790        C  0.05771657  0.19432866  0.99054159    -0.17920
C791        C  0.07298132  0.23818038  0.98935371     0.10410
C792        C  0.09762130  0.23518057  0.00389337    -0.06720
C793        C  0.10641577  0.18824714  0.51925081    -0.17950
C794        C  0.09102904  0.14448765  0.52110186     0.10440
S795        S  0.05961025  0.29693443  0.97002951    -0.32920
S796        S  0.10424138  0.08742231  0.54319182    -0.32920
H797        H  0.08258512  0.07371513  0.56422936     0.28450
H798        H  0.07290722  0.33104944  0.99502675     0.28440
H799        H  0.03878757  0.19729627  0.97919001     0.19030
H800        H  0.12541731  0.18594904  0.53043973     0.19040
C801        C  0.44346340  0.11334998  0.87558507    -0.06790
C802        C  0.42384294  0.08103696  0.86288207    -0.17920
C803        C  0.40350811  0.10113943  0.84194276     0.10410
C804        C  0.40292893  0.15445548  0.83273863    -0.06720
C805        C  0.42125599  0.18741952  0.84855857    -0.17950
C806        C  0.44170415  0.16758318  0.86934696     0.10440
S807        S  0.37975696  0.05659557  0.82476799    -0.32920
S808        S  0.46682765  0.21160937  0.88267328    -0.32920
H809        H  0.45365489  0.25795898  0.87622258     0.28450
H810        H  0.36128397  0.09446270  0.81847175     0.28440
H811        H  0.42453377  0.03988948  0.86869365     0.19030
H812        H  0.42111804  0.22797099  0.84051733     0.19040
C813        C  0.40997636  0.15651254  0.69143027    -0.06790
C814        C  0.43385974  0.17871747  0.68886055    -0.17920
C815        C  0.45311507  0.15361424  0.66853906     0.10410
C816        C  0.44829483  0.10592586  0.64916345    -0.06720
C817        C  0.42423204  0.08413993  0.65087068    -0.17950
C818        C  0.40496228  0.10934332  0.67159911     0.10440
S819        S  0.48391488  0.18257903  0.67075082    -0.32920
S820        S  0.37449155  0.07939493  0.67291803    -0.32920
H821        H  0.36104562  0.12529447  0.68037583     0.28450
H822        H  0.49726452  0.13560030  0.67004225     0.28440
H823        H  0.43805236  0.21376175  0.70554548     0.19030
H824        H  0.42036102  0.04796627  0.63559281     0.19040
C825        C  0.40480732  0.23110782  0.00274555    -0.06790
C826        C  0.39655554  0.18376895  0.51820861    -0.17920
C827        C  0.41272180  0.14149595  0.52122201     0.10410
C828        C  0.43773832  0.14634118  0.00776499    -0.06720
C829        C  0.44572868  0.19378032  0.99173067    -0.17950
C830        C  0.42966324  0.23615372  0.98935945     0.10440
S831        S  0.40036899  0.08381179  0.54396102    -0.32920
S832        S  0.44222389  0.29575013  0.96989620    -0.32920
H833        H  0.42787716  0.32922465  0.99387232     0.28450
H834        H  0.42207306  0.07363927  0.56599907     0.28440
H835        H  0.37743750  0.18012948  0.52878655     0.19030
H836        H  0.46479001  0.19817169  0.98112092     0.19040
C837        C  0.43935970  0.93590458  0.89490742    -0.06790
C838        C  0.41305474  0.93420511  0.89876751    -0.17920
C839        C  0.39725813  0.92449626  0.86576270     0.10410
C840        C  0.40784556  0.91379744  0.82781822    -0.06720
C841        C  0.43399911  0.91460035  0.82454399    -0.17950
C842        C  0.44962419  0.92748869  0.85632258     0.10440
S843        S  0.36397118  0.92873498  0.87411082    -0.32920
S844        S  0.48259483  0.93456341  0.84496580    -0.32920
H845        H  0.48045798  0.93869693  0.80352397     0.28450
H846        H  0.35799750  0.94571124  0.83576598     0.28440
H847        H  0.40466130  0.94172718  0.92750453     0.19030
H848        H  0.44255876  0.90473910  0.79638168     0.19040
C849        C  0.40789591  0.90819745  0.68044646    -0.06790
C850        C  0.43297594  0.89259438  0.68002756    -0.17920
C851        C  0.44832737  0.89955721  0.64688629     0.10410
C852        C  0.43915803  0.92583026  0.61288437    -0.06720
C853        C  0.41362322  0.93994816  0.61271220    -0.17950
C854        C  0.39790209  0.93087276  0.64576977     0.10440
S855        S  0.47924683  0.87209793  0.65043264    -0.32920
S856        S  0.36549862  0.94960686  0.64190655    -0.32920
H857        H  0.36150900  0.95841011  0.68260610     0.28450
H858        H  0.47774306  0.84703487  0.61335547     0.28440
H859        H  0.44062142  0.87339150  0.70580497     0.19030
H860        H  0.40595391  0.95939328  0.58710911     0.19040
C861        C  0.44440813  0.78951530  0.50218080    -0.06790
C862        C  0.42305619  0.80017775  0.97952129    -0.17920
C863        C  0.40222647  0.76735707  0.98050999     0.10410
C864        C  0.40312750  0.72188676  0.50363295    -0.06720
C865        C  0.42459232  0.71125501  0.52605260    -0.17950
C866        C  0.44525359  0.74429866  0.52539835     0.10440
S867        S  0.37481613  0.78717075  0.95332381    -0.32920
S868        S  0.47245990  0.72546844  0.55352056    -0.32920
H869        H  0.49012495  0.74438118  0.52619821     0.28450
H870        H  0.35733947  0.76553768  0.97972185     0.28440
H871        H  0.42226373  0.83527242  0.96210154     0.19030
H872        H  0.42548039  0.67620011  0.54349060     0.19040
C873        C  0.06499194  0.92816359  0.89812688    -0.06790
C874        C  0.08872150  0.95149890  0.89427895    -0.17920
C875        C  0.10328949  0.94473268  0.85975335     0.10410
C876        C  0.09430449  0.91273209  0.82864641    -0.06720
C877        C  0.07163875  0.88630497  0.83381523    -0.17950
C878        C  0.05713672  0.89285020  0.86812825     0.10440
S879        S  0.13265866  0.97910770  0.85675488    -0.32920
S880        S  0.02955172  0.85288658  0.87391135    -0.32920
H881        H  0.02930768  0.83119095  0.83551415     0.28450
H882        H  0.13328000  0.98307869  0.81521769     0.28440
H883        H  0.09562085  0.97653292  0.91765975     0.19030
H884        H  0.06547941  0.85969436  0.81082144     0.19040
C885        C  0.06496865  0.92469808  0.61045691    -0.06790
C886        C  0.05318211  0.90398499  0.64425581    -0.17920
C887        C  0.06629145  0.89287323  0.67883337     0.10410
C888        C  0.09210777  0.90417517  0.68119118    -0.06720
C889        C  0.10445462  0.92193813  0.64694047    -0.17950
C890        C  0.09131412  0.93156188  0.61155563     0.10440
S891        S  0.04884049  0.86262254  0.71833016    -0.32920
S892        S  0.10929279  0.95281706  0.56956349    -0.32920
H893        H  0.09707027  0.91978678  0.54242538     0.28450
H894        H  0.06863165  0.83103019  0.73118361     0.28440
H895        H  0.03324318  0.89640430  0.64412280     0.19030
H896        H  0.12447343  0.92895357  0.64790398     0.19040
C897        C  0.05746480  0.78473608  0.50114041    -0.06790
C898        C  0.07892866  0.79401799  0.52404120    -0.17920
C899        C  0.09848453  0.75804885  0.52525908     0.10410
C900        C  0.09610271  0.71008686  0.50485516    -0.06720
C901        C  0.07441306  0.70058065  0.98238014    -0.17950
C902        C  0.05528049  0.73748753  0.98002537     0.10440
S903        S  0.12647255  0.77706763  0.55145905    -0.32920
S904        S  0.02765825  0.72081063  0.95220158    -0.32920
H905        H  0.03188342  0.75963468  0.92400520     0.28450
H906        H  0.14283454  0.75565771  0.52304569     0.28440
H907        H  0.08075275  0.83022231  0.54027673     0.19030
H908        H  0.07232573  0.66403216  0.96668064     0.19040
O909        O  0.97313340  0.04574337  0.38730763    -0.88850
C910        C  0.53733487  0.82384878  0.00158876     1.11190
O911        O  0.50194191  0.02913195  0.46574748    -1.36650
O912        O  0.97284959  0.84369220  0.46921464    -0.90330
O913        O  0.97417527  0.11735673  0.42460018    -0.91000
O914        O  0.94939709  0.05712757  0.50764041    -0.79820
O915        O  0.97842431  0.94360581  0.42688834    -1.01900
C916        C  0.95633514  0.94239701  0.07977873     1.21240
O917        O  0.00222306  0.02631382  0.04788198    -1.36800
Mn918      Mn  0.52943132  0.99581945  0.00555956     1.82060
O919        O  0.94884021  0.96337588  0.04832787    -0.78890
O920        O  0.97398403  0.84076682  0.03568214    -0.88290
C921        C  0.54819473  0.94169539  0.07745651     1.12320
C922        C  0.96500997  0.82703259  0.00234260     1.07050
O923        O  0.55508210  0.05724307  0.00653011    -0.79830
O924        O  0.50190559  0.93457616  0.00438595    -1.33520
O925        O  0.52594863  0.11252987  0.00862965    -0.99040
C926        C  0.96735384  0.08284257  0.12323454     1.05760
Mn927      Mn  0.00202961  0.88981898  0.05659338     1.48570
O928        O  0.97570393  0.11159259  0.09606682    -0.88240
Mn929      Mn  0.50212242  0.11155167  0.46573133     1.49560
O930        O  0.53004590  0.04486243  0.38635525    -0.92120
C931        C  0.95590997  0.94817484  0.43006274     1.18960
C932        C  0.53843319  0.08965383  0.39529099     1.11010
Mn933      Mn  0.97453092  0.99563858  0.50615925     1.80970
O934        O  0.52566521  0.93766005  0.08177058    -0.97270
Mn935      Mn  0.00176794  0.99602081  0.40824645     1.49260
C936        C  0.96493048  0.09054290  0.39685746     1.07530
Mn937      Mn  0.50293061  0.98941653  0.10378860     1.49930
C938        C  0.54102278  0.08102393  0.11885696     1.10440
O939        O  0.97845015  0.11333718  0.50967695    -1.03070
O940        O  0.52968984  0.83989137  0.03520699    -0.92730
C941        C  0.95605463  0.10359790  0.50916398     1.21720
O942        O  0.97890849  0.93814544  0.08353027    -1.03460
O943        O  0.52867695  0.83990070  0.46875349    -0.90860
O944        O  0.53241707  0.03604685  0.12660397    -0.90470
O945        O  0.52982217  0.11747134  0.42311755    -0.90490
Mn946      Mn  0.50131512  0.89277982  0.45011794     1.47860
O947        O  0.55547068  0.96369580  0.04643880    -0.78960
C948        C  0.54833052  0.10361158  0.00773176     1.14770
O949        O  0.94825247  0.96634845  0.46269087    -0.77690
O950        O  0.55492814  0.96566954  0.46247764    -0.77310
Mn951      Mn  0.00267134  0.10826185  0.05253042     1.51060
O952        O  0.97522497  0.03712563  0.12954352    -0.89660
O953        O  0.52507737  0.94166770  0.42575212    -0.97190
O954        O  0.53120550  0.10996725  0.09328344    -0.92200
C955        C  0.54760858  0.94500155  0.43063327     1.12560
C956        C  0.61464853  0.28004771  0.50424897     0.02460
C957        C  0.62292603  0.30230947  0.46843256    -0.13690
C958        C  0.64177668  0.34032797  0.46927814    -0.00040
C959        C  0.65146774  0.35597914  0.50588872    -0.12210
C960        C  0.64187455  0.33780252  0.04138473     0.02450
C961        C  0.62393467  0.29843458  0.04079840    -0.11630
H962        H  0.61538502  0.28881488  0.44039617     0.08050
H963        H  0.66718094  0.38270043  0.50702954     0.05580
H964        H  0.61748480  0.28176206  0.06840467     0.05430
C965        C  0.88732938  0.27492801  0.50279777     0.02460
C966        C  0.87794692  0.29469547  0.46695011    -0.13690
C967        C  0.86020397  0.33461309  0.46811043    -0.00040
C968        C  0.85281360  0.35565521  0.50431518    -0.12210
C969        C  0.86089897  0.33429138  0.03970970     0.02450
C970        C  0.87847972  0.29434902  0.03926848    -0.11630
H971        H  0.88332382  0.27734311  0.43883724     0.08050
H972        H  0.83847519  0.38548239  0.50494606     0.05580
H973        H  0.88454957  0.27733456  0.06691766     0.05430
C974        C  0.88257345  0.68370725  0.00449027     0.02460
C975        C  0.87341613  0.66178666  0.96915200    -0.13690
C976        C  0.85418261  0.62481109  0.96993344    -0.00040
C977        C  0.84503455  0.60848997  0.00715645    -0.12210
C978        C  0.85344692  0.63152176  0.04295934     0.02450
C979        C  0.87221816  0.66932208  0.04103838    -0.11630
H980        H  0.88059953  0.67529900  0.44102974     0.08050
H981        H  0.83015981  0.57988827  0.00809830     0.05580
H982        H  0.87822215  0.68921080  0.06779565     0.05430
C983        C  0.61606790  0.67004564  0.00552750     0.02460
C984        C  0.62653967  0.65251947  0.46958784    -0.13690
C985        C  0.64728053  0.61936883  0.46939873    -0.00040
C986        C  0.65737939  0.60294673  0.00580703    -0.12210
C987        C  0.64680601  0.61934739  0.04216532     0.02450
C988        C  0.62578549  0.65194950  0.04168004    -0.11630
H989        H  0.61947304  0.66714411  0.44171229     0.08050
H990        H  0.67411647  0.57924902  0.00588289     0.05580
H991        H  0.61789969  0.66563753  0.06947098     0.05430
O992        O  0.72461116  0.39394656  0.17171920    -0.88850
C993        C  0.78970806  0.42944145  0.36701741     1.11190
O994        O  0.75179751  0.48237730  0.21430688    -1.36650
O995        O  0.72516905  0.39718706  0.34176916    -0.90330
O996        O  0.72403093  0.46473375  0.13444811    -0.91000
O997        O  0.69719861  0.54072647  0.21339803    -0.79820
O998        O  0.72938921  0.39612759  0.25623846    -1.01900
C999        C  0.70440209  0.56376940  0.32876278     1.21240
O1000       O  0.74984834  0.57658508  0.25483838    -1.36800
Mn1001     Mn  0.77895175  0.51775887  0.25483067     1.82050
O1002       O  0.69756710  0.54105506  0.29753542    -0.78890
O1003       O  0.72429532  0.47141272  0.37545328    -0.88290
C1004       C  0.79575461  0.57310557  0.32850250     1.12320
C1005       C  0.71583693  0.42634706  0.36821919     1.07050
O1006       O  0.80411278  0.55302111  0.21231628    -0.79830
O1007       O  0.75198464  0.48381666  0.29600884    -1.33520
O1008       O  0.77272555  0.57153840  0.17857022    -0.99040
C1009       C  0.71158401  0.68466221  0.25408942     1.05760
Mn1010     Mn  0.75159368  0.52053192  0.35212662     1.48570
O1011       O  0.72007774  0.66864272  0.22092625    -0.88240
Mn1012     Mn  0.75132142  0.51626344  0.15772198     1.49560
O1013       O  0.77975556  0.39639523  0.16983303    -0.92120
C1014       C  0.70685775  0.40253723  0.25633391     1.18960
C1015       C  0.78945726  0.42443149  0.14357077     1.11010
Mn1016     Mn  0.72374556  0.51234811  0.25520597     1.80970
O1017       O  0.77320924  0.57403601  0.33106542    -0.97270
Mn1018     Mn  0.75266951  0.40017063  0.21256252     1.49260
C1019       C  0.71560263  0.42013477  0.14385562     1.07530
Mn1020     Mn  0.74902345  0.62135640  0.30737433     1.49930
C1021       C  0.78434368  0.68939276  0.25398889     1.10440
O1022       O  0.72650016  0.56724650  0.17686083    -1.03070
O1023       O  0.78144326  0.47484153  0.37468670    -0.92730
C1024       C  0.70403342  0.56152004  0.18159404     1.21720
O1025       O  0.72681896  0.57069204  0.33301993    -1.03460
O1026       O  0.78060591  0.40002977  0.34077130    -0.90860
O1027       O  0.77639527  0.67338088  0.28731114    -0.90470
O1028       O  0.78154501  0.46999223  0.13576263    -0.90490
Mn1029     Mn  0.75302268  0.40182245  0.29923137     1.47860
O1030       O  0.80434582  0.55244988  0.29735930    -0.78960
C1031       C  0.79521449  0.57346525  0.18156630     1.14770
O1032       O  0.69914177  0.44832630  0.25535841    -0.77690
O1033       O  0.80547419  0.45675582  0.25452058    -0.77310
Mn1034     Mn  0.74868428  0.61934520  0.20166865     1.51060
O1035       O  0.71999067  0.66981741  0.28750883    -0.89660
O1036       O  0.77678168  0.39979337  0.25544606    -0.97190
O1037       O  0.77582874  0.67305102  0.22090502    -0.92200
C1038       C  0.79910712  0.40970303  0.25450803     1.12560
C1039       C  0.63916825  0.22712071  0.25328657     0.02460
C1040       C  0.63442465  0.19969128  0.21778727    -0.13690
C1041       C  0.61869629  0.15589470  0.21810176    -0.00040
C1042       C  0.60840200  0.13964743  0.25392716    -0.12210
C1043       C  0.61095505  0.16951143  0.28821485     0.02450
C1044       C  0.62712108  0.21224076  0.28854014    -0.11630
H1045       H  0.64203267  0.21356681  0.19000453     0.08050
H1046       H  0.59512931  0.10772421  0.25403724     0.05580
H1047       H  0.62918013  0.23547598  0.31525325     0.05430
C1048       C  0.86455581  0.84244740  0.25456133     0.02460
C1049       C  0.87436978  0.86033956  0.21827560    -0.13690
C1050       C  0.89335429  0.89801177  0.21756203    -0.00040
C1051       C  0.90191645  0.91901432  0.25370713    -0.12210
C1052       C  0.89338360  0.90026331  0.29066056     0.02450
C1053       C  0.87427910  0.86247825  0.29054653    -0.11630
H1054       H  0.86811449  0.84300073  0.19062762     0.08050
H1055       H  0.91672360  0.94778237  0.25289253     0.05580
H1056       H  0.86763095  0.84701008  0.31835713     0.05430
C1057       C  0.63867175  0.85020381  0.25494697     0.02460
C1058       C  0.62719450  0.86376697  0.21902559    -0.13690
C1059       C  0.60633807  0.89665442  0.21866592    -0.00040
C1060       C  0.59741671  0.91727970  0.25481152    -0.12210
C1061       C  0.60815054  0.90275436  0.29110090     0.02450
C1062       C  0.62901454  0.86983972  0.29090665    -0.11630
H1063       H  0.63347720  0.84596394  0.19155068     0.08050
H1064       H  0.58095323  0.94179821  0.25494318     0.05580
H1065       H  0.63679668  0.85704534  0.31883489     0.05430
C1066       C  0.87012323  0.24041987  0.25857207     0.02460
C1067       C  0.87982844  0.21886464  0.22332601    -0.13690
C1068       C  0.89442283  0.17393393  0.22480677    -0.00040
C1069       C  0.89880615  0.15011622  0.26095766    -0.12210
C1070       C  0.89053933  0.17251390  0.29637727     0.02450
C1071       C  0.87603025  0.21788439  0.29529161    -0.11630
H1072       H  0.87654200  0.23760668  0.19516383     0.08050
H1073       H  0.91131838  0.11701625  0.26181419     0.05580
H1074       H  0.86981114  0.23596674  0.32269211     0.05430
C1075       C  0.65816150  0.80930897  0.25522248    -0.06790
C1076       C  0.65369713  0.76479546  0.27786053    -0.17920
C1077       C  0.67012102  0.72269390  0.27682879     0.10410
C1078       C  0.69201973  0.72511718  0.25344480    -0.06720
C1079       C  0.69629355  0.76920759  0.23022662    -0.17950
C1080       C  0.67985374  0.81140971  0.23116486     0.10440
S1081       S  0.66092530  0.66577067  0.30347841    -0.32920
S1082       S  0.68820406  0.86731117  0.20217339    -0.32920
H1083       H  0.67697142  0.90400046  0.22758546     0.28450
H1084       H  0.67152344  0.63056044  0.27622055     0.28440
H1085       H  0.63669411  0.76193039  0.29534633     0.19030
H1086       H  0.71304612  0.77155080  0.21213122     0.19040
C1087       C  0.80455340  0.72892731  0.25389243    -0.06790
C1088       C  0.82578187  0.72104605  0.27761670    -0.17920
C1089       C  0.84593983  0.75605991  0.27747358     0.10410
C1090       C  0.84456706  0.80173903  0.25441666    -0.06720
C1091       C  0.82327274  0.80936748  0.23064563    -0.17950
C1092       C  0.80338185  0.77378673  0.23018869     0.10440
S1093       S  0.87335528  0.73814109  0.30537908    -0.32920
S1094       S  0.77651165  0.78910717  0.20015945    -0.32920
H1095       H  0.75878283  0.76996659  0.22725931     0.28450
H1096       H  0.89067025  0.76035031  0.27898791     0.28440
H1097       H  0.82706809  0.68629410  0.29535132     0.19030
H1098       H  0.82183227  0.84408665  0.21293922     0.19040
C1099       C  0.68954946  0.35732675  0.25641988    -0.06790
C1100       C  0.66546286  0.36303984  0.24022062    -0.17920
C1101       C  0.64863752  0.32131606  0.23841941     0.10410
C1102       C  0.65584232  0.27274185  0.25359910    -0.06720
C1103       C  0.67969811  0.26682889  0.26986905    -0.17950
C1104       C  0.69679721  0.30802614  0.27102859     0.10440
S1105       S  0.61848123  0.33250185  0.21600804    -0.32920
S1106       S  0.72754728  0.29608529  0.29155101    -0.32920
H1107       H  0.72389810  0.24386722  0.30176251     0.28450
H1108       H  0.60520577  0.29508866  0.23759350     0.28440
H1109       H  0.65979753  0.40007939  0.22831422     0.19030
H1110       H  0.68496065  0.22930558  0.28128881     0.19040
C1111       C  0.81769602  0.36668864  0.25339760    -0.06790
C1112       C  0.84219294  0.37584452  0.26713882    -0.17920
C1113       C  0.85985293  0.33571669  0.26923076     0.10410
C1114       C  0.85311608  0.28533336  0.25650993    -0.06720
C1115       C  0.82910999  0.27636253  0.24158371    -0.17950
C1116       C  0.81126140  0.31589860  0.24005401     0.10440
S1117       S  0.89044450  0.35119843  0.28871099    -0.32920
S1118       S  0.78057323  0.29950607  0.22086099    -0.32920
H1119       H  0.78645495  0.24998402  0.20583259     0.28450
H1120       H  0.90358197  0.31206957  0.26829262     0.28440
H1121       H  0.84756513  0.41433536  0.27683078     0.19030
H1122       H  0.82421237  0.23753563  0.23190934     0.19040
C1123       C  0.68665737  0.57947352  0.14965886    -0.06790
C1124       C  0.69644106  0.61549120  0.12261289    -0.17920
C1125       C  0.68355977  0.63000646  0.08854711     0.10410
C1126       C  0.65981600  0.60853008  0.08033792    -0.06720
C1127       C  0.64876958  0.57603046  0.10884932    -0.17950
C1128       C  0.66195823  0.56082889  0.14315947     0.10440
S1129       S  0.69867492  0.67671948  0.05705493    -0.32920
S1130       S  0.64661499  0.51617330  0.17608834    -0.32920
H1131       H  0.66717351  0.48249629  0.17908090     0.28450
H1132       H  0.67655715  0.69990627  0.04355485     0.28440
H1133       H  0.71461262  0.63275812  0.12791902     0.19030
H1134       H  0.63014566  0.56073035  0.10356909     0.19040
C1135       C  0.68702437  0.58096481  0.36113859    -0.06790
C1136       C  0.69591494  0.61962135  0.38727464    -0.17920
C1137       C  0.68294559  0.63334876  0.42188125     0.10410
C1138       C  0.66040238  0.60793482  0.43137093    -0.06720
C1139       C  0.65037079  0.57184598  0.40419796    -0.17950
C1140       C  0.66333411  0.55827328  0.36914935     0.10440
S1141       S  0.69516127  0.68414683  0.45352566    -0.32920
S1142       S  0.64952599  0.50948296  0.33761907    -0.32920
H1143       H  0.65081033  0.54040402  0.30349773     0.28450
H1144       H  0.71733272  0.69347444  0.93215178     0.28440
H1145       H  0.71340241  0.63899295  0.38069733     0.19030
H1146       H  0.63271724  0.55302199  0.41090256     0.19040
C1147       C  0.81019525  0.59819337  0.14901165    -0.06790
C1148       C  0.83634531  0.60406908  0.15223864    -0.17920
C1149       C  0.85128668  0.61422654  0.11849437     0.10410
C1150       C  0.83974000  0.62184817  0.08098557    -0.06720
C1151       C  0.81359990  0.62260063  0.07934581    -0.17950
C1152       C  0.79885697  0.61162617  0.11227425     0.10440
S1153       S  0.88476259  0.61043768  0.12471101    -0.32920
S1154       S  0.76560179  0.61556816  0.10400818    -0.32920
H1155       H  0.76188784  0.64959072  0.13631728     0.28450
H1156       H  0.88944736  0.58784421  0.08733943     0.28440
H1157       H  0.84542311  0.59550182  0.18014109     0.19030
H1158       H  0.80434271  0.63196295  0.05171862     0.19040
C1159       C  0.81118691  0.59126680  0.36317816    -0.06500
C1160       C  0.83749950  0.58895659  0.36182183    -0.17920
C1161       C  0.85218182  0.59715504  0.39611884     0.10410
C1162       C  0.84048916  0.61059868  0.43263499    -0.06720
C1163       C  0.81441263  0.61556961  0.43328537    -0.17950
C1164       C  0.79980314  0.60669755  0.39969957     0.10440
S1165       S  0.88541571  0.58626976  0.39167544    -0.32920
S1166       S  0.76665541  0.61675804  0.40672314    -0.32920
H1167       H  0.76485965  0.65165659  0.37497907     0.28450
H1168       H  0.88870586  0.56913308  0.43081188     0.28440
H1169       H  0.84668564  0.57812913  0.33432160     0.19030
H1170       H  0.80514386  0.62797806  0.46036222     0.19040
C1171       C  0.81034764  0.40014346  0.12129546    -0.06790
C1172       C  0.80873615  0.34675118  0.11270914    -0.17920
C1173       C  0.82699758  0.32173170  0.08992178     0.10410
C1174       C  0.84745802  0.35064465  0.07541494    -0.06720
C1175       C  0.85030681  0.40235107  0.08705432    -0.17950
C1176       C  0.83229932  0.42672485  0.11043896     0.10440
S1177       S  0.82239156  0.25373055  0.07917057    -0.32920
S1178       S  0.83940751  0.49028606  0.12724121    -0.32920
H1179       H  0.82916812  0.48298876  0.16522792     0.28450
H1180       H  0.83161626  0.25405754  0.04023278     0.28440
H1181       H  0.79258960  0.32466659  0.12241593     0.19030
H1182       H  0.86618686  0.42451536  0.07631623     0.19040
C1183       C  0.84485310  0.34903014  0.43402467    -0.06790
C1184       C  0.85253132  0.39071833  0.41058991    -0.17920
C1185       C  0.83515682  0.41807888  0.38778857     0.10410
C1186       C  0.80941070  0.40576693  0.39093930    -0.06720
C1187       C  0.80213869  0.36232700  0.41274592    -0.17950
C1188       C  0.81956644  0.33315354  0.43333194     0.10440
S1189       S  0.84735667  0.46647881  0.35498835    -0.32920
S1190       S  0.80807619  0.27845388  0.46100531    -0.32920
H1191       H  0.83068445  0.25065524  0.96016372     0.28450
H1192       H  0.82655071  0.46930211  0.32984473     0.28440
H1193       H  0.87195814  0.40305091  0.41113879     0.19030
H1194       H  0.78259489  0.35071942  0.41348321     0.19040
C1195       C  0.69392149  0.39751635  0.12249961    -0.06790
C1196       C  0.67692347  0.43106116  0.10425014    -0.17920
C1197       C  0.65643302  0.41181729  0.08316685     0.10410
C1198       C  0.65367643  0.35775466  0.07775976    -0.06720
C1199       C  0.66934923  0.32407263  0.09827396    -0.17950
C1200       C  0.68930716  0.34316728  0.12075719     0.10440
S1201       S  0.63571395  0.45783451  0.06014570    -0.32920
S1202       S  0.70984809  0.29545194  0.14186820    -0.32920
H1203       H  0.70152955  0.30598442  0.18068285     0.28450
H1204       H  0.61549669  0.42323707  0.05559311     0.28440
H1205       H  0.67981447  0.47250053  0.10578786     0.19030
H1206       H  0.66753140  0.28260919  0.09368974     0.19040
C1207       C  0.65356555  0.36373633  0.43377612    -0.06790
C1208       C  0.65948474  0.41679816  0.43689986    -0.17920
C1209       C  0.68114746  0.43636568  0.41960456     0.10410
C1210       C  0.69378755  0.40662681  0.39044994    -0.06720
C1211       C  0.68466524  0.35642782  0.38161341    -0.17950
C1212       C  0.66573278  0.33372549  0.40436683     0.10440
S1213       S  0.69385038  0.49417037  0.44225048    -0.32920
S1214       S  0.65999649  0.26552368  0.39689132    -0.32920
H1215       H  0.66377072  0.25286262  0.43693950     0.28450
H1216       H  0.71739288  0.47164997  0.44938286     0.28440
H1217       H  0.65008883  0.44044024  0.45911180     0.19030
H1218       H  0.69368906  0.33280015  0.35914213     0.19040
C1219       C  0.59278455  0.15990703  0.32006682    -0.06790
C1220       C  0.60085680  0.13676224  0.35516067    -0.17920
C1221       C  0.58361328  0.11372924  0.38095084     0.10410
C1222       C  0.55792440  0.11269905  0.37056479    -0.06720
C1223       C  0.54984318  0.13862571  0.33675094    -0.17950
C1224       C  0.56685688  0.16315857  0.31191139     0.10440
S1225       S  0.59588620  0.08629063  0.42582396    -0.32920
S1226       S  0.55440958  0.19596252  0.26912806    -0.32920
H1227       H  0.57437497  0.23111701  0.26518105     0.28450
H1228       H  0.57490383  0.05643348  0.43559785     0.28440
H1229       H  0.62072948  0.13440603  0.36149761     0.19030
H1230       H  0.53002884  0.13993426  0.32970513     0.19040
C1231       C  0.60625889  0.13594762  0.18197819    -0.06790
C1232       C  0.59099978  0.17115073  0.16206317    -0.17920
C1233       C  0.56993928  0.15453001  0.14109776     0.10410
C1234       C  0.56387434  0.10080208  0.13927102    -0.06720
C1235       C  0.58068399  0.06528730  0.15604288    -0.17950
C1236       C  0.60197232  0.08227569  0.17665462     0.10440
S1237       S  0.55019122  0.20503592  0.12196847    -0.32920
S1238       S  0.62200679  0.03420073  0.19862456    -0.32920
H1239       H  0.64276126  0.06725612  0.20373312     0.28450
H1240       H  0.55721501  0.19450666  0.08254654     0.28440
H1241       H  0.59387514  0.21240598  0.16644441     0.19030
H1242       H  0.57699985  0.02414657  0.15384129     0.19040
C1243       C  0.56622852  0.14732202  0.00656617    -0.06790
C1244       C  0.55771658  0.19432866  0.49054162    -0.17920
C1245       C  0.57298132  0.23818038  0.48935375     0.10410
C1246       C  0.59762130  0.23518057  0.50389341    -0.06720
C1247       C  0.60641576  0.18824715  0.01925085    -0.17950
C1248       C  0.59102903  0.14448767  0.02110190     0.10440
S1249       S  0.55961025  0.29693444  0.47002956    -0.32920
S1250       S  0.60424137  0.08742232  0.04319185    -0.32920
H1251       H  0.58258511  0.07371512  0.06422938     0.28450
H1252       H  0.57290722  0.33104944  0.49502680     0.28440
H1253       H  0.53878757  0.19729627  0.47919004     0.19030
H1254       H  0.62541730  0.18594906  0.03043978     0.19040
C1255       C  0.94346341  0.11334999  0.37558507    -0.06790
C1256       C  0.92384294  0.08103697  0.36288206    -0.17920
C1257       C  0.90350812  0.10113945  0.34194275     0.10410
C1258       C  0.90292894  0.15445549  0.33273862    -0.06720
C1259       C  0.92125600  0.18741953  0.34855856    -0.17950
C1260       C  0.94170415  0.16758319  0.36934696     0.10440
S1261       S  0.87975697  0.05659559  0.32476798    -0.32920
S1262       S  0.96682766  0.21160937  0.38267328    -0.32920
H1263       H  0.95365491  0.25795899  0.37622256     0.28450
H1264       H  0.86128397  0.09446272  0.31847174     0.28440
H1265       H  0.92453377  0.03988949  0.36869365     0.19030
H1266       H  0.92111805  0.22797100  0.34051732     0.19040
C1267       C  0.90997635  0.15651254  0.19143026    -0.06790
C1268       C  0.93385972  0.17871752  0.18886048    -0.17920
C1269       C  0.95311506  0.15361430  0.16853900     0.10410
C1270       C  0.94829483  0.10592587  0.14916344    -0.06720
C1271       C  0.92423206  0.08413990  0.15087072    -0.17950
C1272       C  0.90496229  0.10934328  0.17159914     0.10440
S1273       S  0.98391485  0.18257915  0.17075071    -0.32920
S1274       S  0.87449158  0.07939482  0.17291814    -0.32920
H1275       H  0.86104563  0.12529434  0.18037591     0.28450
H1276       H  0.99726452  0.13560045  0.17004218     0.28440
H1277       H  0.93805233  0.21376183  0.20554538     0.19030
H1278       H  0.92036104  0.04796620  0.13559289     0.19040
C1279       C  0.90480732  0.23110780  0.50274558    -0.06790
C1280       C  0.89655555  0.18376895  0.01820867    -0.17920
C1281       C  0.91272180  0.14149594  0.02122205     0.10410
C1282       C  0.93773833  0.14634117  0.50776501    -0.06720
C1283       C  0.94572868  0.19378031  0.49173067    -0.17950
C1284       C  0.92966323  0.23615370  0.48935945     0.10440
S1285       S  0.90036901  0.08381180  0.04396109    -0.32920
S1286       S  0.94222387  0.29575010  0.46989616    -0.32920
H1287       H  0.92787714  0.32922463  0.49387229     0.28450
H1288       H  0.92207309  0.07363928  0.06599911     0.28440
H1289       H  0.87743750  0.18012947  0.02878663     0.19030
H1290       H  0.96479000  0.19817168  0.48112089     0.19040
C1291       C  0.93935970  0.93590460  0.39490741    -0.06790
C1292       C  0.91305474  0.93420512  0.39876751    -0.17920
C1293       C  0.89725813  0.92449627  0.36576270     0.10410
C1294       C  0.90784556  0.91379745  0.32781822    -0.06720
C1295       C  0.93399911  0.91460037  0.32454399    -0.17950
C1296       C  0.94962419  0.92748871  0.35632258     0.10440
S1297       S  0.86397118  0.92873499  0.37411081    -0.32920
S1298       S  0.98259483  0.93456345  0.34496580    -0.32920
H1299       H  0.98045798  0.93869698  0.30352397     0.28450
H1300       H  0.85799750  0.94571125  0.33576598     0.28440
H1301       H  0.90466130  0.94172719  0.42750452     0.19030
H1302       H  0.94255876  0.90473912  0.29638168     0.19040
C1303       C  0.90789591  0.90819744  0.18044645    -0.06790
C1304       C  0.93297595  0.89259438  0.18002756    -0.17920
C1305       C  0.94832738  0.89955721  0.14688629     0.10410
C1306       C  0.93915803  0.92583025  0.11288437    -0.06720
C1307       C  0.91362322  0.93994814  0.11271219    -0.17950
C1308       C  0.89790209  0.93087273  0.14576976     0.10440
S1309       S  0.97924684  0.87209794  0.15043265    -0.32920
S1310       S  0.86549862  0.94960681  0.14190653    -0.32920
H1311       H  0.86150899  0.95841004  0.18260608     0.28450
H1312       H  0.97774307  0.84703488  0.11335547     0.28440
H1313       H  0.94062143  0.87339151  0.20580497     0.19030
H1314       H  0.90595391  0.95939325  0.08710909     0.19040
C1315       C  0.94440813  0.78951529  0.00218081    -0.06790
C1316       C  0.92305618  0.80017774  0.47952131    -0.17920
C1317       C  0.90222647  0.76735706  0.48051002     0.10410
C1318       C  0.90312750  0.72188674  0.00363298    -0.06720
C1319       C  0.92459232  0.71125500  0.02605262    -0.17950
C1320       C  0.94525359  0.74429866  0.02539835     0.10440
S1321       S  0.87481613  0.78717073  0.45332385    -0.32920
S1322       S  0.97245992  0.72546844  0.05352055    -0.32920
H1323       H  0.99012495  0.74438118  0.02619819     0.28450
H1324       H  0.85733947  0.76553766  0.47972189     0.28440
H1325       H  0.92226372  0.83527240  0.46210156     0.19030
H1326       H  0.92548040  0.67620010  0.04349061     0.19040
C1327       C  0.56499194  0.92816360  0.39812689    -0.06790
C1328       C  0.58872150  0.95149891  0.39427896    -0.17920
C1329       C  0.60328949  0.94473269  0.35975336     0.10410
C1330       C  0.59430449  0.91273210  0.32864642    -0.06720
C1331       C  0.57163876  0.88630498  0.33381524    -0.17950
C1332       C  0.55713673  0.89285020  0.36812827     0.10440
S1333       S  0.63265866  0.97910771  0.35675489    -0.32920
S1334       S  0.52955172  0.85288658  0.37391136    -0.32920
H1335       H  0.52930769  0.83119094  0.33551417     0.28450
H1336       H  0.63328001  0.98307869  0.31521769     0.28440
H1337       H  0.59562086  0.97653294  0.41765976     0.19030
H1338       H  0.56547942  0.85969437  0.31082146     0.19040
C1339       C  0.56496865  0.92469810  0.11045692    -0.06790
C1340       C  0.55318210  0.90398503  0.14425583    -0.17920
C1341       C  0.56629144  0.89287327  0.17883339     0.10410
C1342       C  0.59210776  0.90417519  0.18119119    -0.06720
C1343       C  0.60445461  0.92193813  0.14694048    -0.17950
C1344       C  0.59131412  0.93156188  0.11155564     0.10440
S1345       S  0.54884048  0.86262260  0.21833019    -0.32920
S1346       S  0.60929279  0.95281704  0.06956349    -0.32920
H1347       H  0.59707026  0.91978678  0.04242538     0.28450
H1348       H  0.56863164  0.83103023  0.23118363     0.28440
H1349       H  0.53324317  0.89640436  0.14412283     0.19030
H1350       H  0.62447343  0.92895356  0.14790398     0.19040
C1351       C  0.55746481  0.78473608  0.00114042    -0.06790
C1352       C  0.57892866  0.79401800  0.02404122    -0.17920
C1353       C  0.59848453  0.75804885  0.02525910     0.10410
C1354       C  0.59610271  0.71008686  0.00485519    -0.06720
C1355       C  0.57441306  0.70058064  0.48238017    -0.17950
C1356       C  0.55528049  0.73748753  0.48002539     0.10440
S1357       S  0.62647254  0.77706764  0.05145908    -0.32920
S1358       S  0.52765825  0.72081062  0.45220160    -0.32920
H1359       H  0.53188342  0.75963468  0.42400522     0.28450
H1360       H  0.64283454  0.75565771  0.02304573     0.28440
H1361       H  0.58075275  0.83022232  0.04027674     0.19030
H1362       H  0.57232572  0.66403215  0.46668067     0.19040
O1363       O  0.97313338  0.04574339  0.88730765    -0.88850
C1364       C  0.53733485  0.82384878  0.50158877     1.11190
O1365       O  0.50194193  0.02913194  0.96574745    -1.36650
O1366       O  0.97284957  0.84369221  0.96921465    -0.90330
O1367       O  0.97417523  0.11735673  0.92460022    -0.91000
O1368       O  0.94939706  0.05712757  0.00764043    -0.79820
O1369       O  0.97842428  0.94360582  0.92688836    -1.01900
C1370       C  0.95633516  0.94239701  0.57977872     1.21240
O1371       O  0.00222309  0.02631382  0.54788196    -1.36800
Mn1372     Mn  0.52943130  0.99581945  0.50555958     1.82060
O1373       O  0.94884024  0.96337589  0.54832785    -0.78890
O1374       O  0.97398406  0.84076682  0.53568213    -0.88290
C1375       C  0.54819471  0.94169538  0.57745652     1.12320
C1376       C  0.96500999  0.82703259  0.50234259     1.07050
O1377       O  0.55508208  0.05724307  0.50653013    -0.79830
O1378       O  0.50190557  0.93457616  0.50438596    -1.33520
O1379       O  0.52594861  0.11252987  0.50862968    -0.99040
C1380       C  0.96735386  0.08284258  0.62323452     1.05760
Mn1381     Mn  0.00202963  0.88981897  0.55659337     1.48570
O1382       O  0.97570395  0.11159259  0.59606679    -0.88240
Mn1383     Mn  0.50212244  0.11155166  0.96573130     1.49560
O1384       O  0.53004592  0.04486242  0.88635522    -0.92120
C1385       C  0.95590995  0.94817485  0.93006275     1.18960
C1386       C  0.53843321  0.08965380  0.89529095     1.11010
Mn1387     Mn  0.97453089  0.99563858  0.00615927     1.80970
O1388       O  0.52566519  0.93766003  0.58177060    -0.97270
Mn1389     Mn  0.00176792  0.99602082  0.90824647     1.49260
C1390       C  0.96493045  0.09054291  0.89685748     1.07530
Mn1391     Mn  0.50293059  0.98941652  0.60378862     1.49930
C1392       C  0.54102277  0.08102391  0.61885698     1.10440
O1393       O  0.97845012  0.11333718  0.00967698    -1.03070
O1394       O  0.52968982  0.83989137  0.53520701    -0.92730
C1395       C  0.95605460  0.10359791  0.00916401     1.21720
O1396       O  0.97890851  0.93814544  0.58353026    -1.03460
O1397       O  0.52867697  0.83990070  0.96875348    -0.90860
O1398       O  0.53241706  0.03604684  0.62660400    -0.90470
O1399       O  0.52982220  0.11747131  0.92311752    -0.90490
Mn1400     Mn  0.50131515  0.89277982  0.95011792     1.47860
O1401       O  0.55547066  0.96369580  0.54643882    -0.78960
C1402       C  0.54833050  0.10361158  0.50773178     1.14770
O1403       O  0.94825244  0.96634846  0.96269088    -0.77690
O1404       O  0.55492817  0.96566954  0.96247762    -0.77310
Mn1405     Mn  0.00267136  0.10826185  0.55253039     1.51060
O1406       O  0.97522499  0.03712563  0.62954350    -0.89660
O1407       O  0.52507740  0.94166769  0.92575210    -0.97190
O1408       O  0.53120548  0.10996724  0.59328347    -0.92200
C1409       C  0.54760861  0.94500154  0.93063324     1.12560
C1410       C  0.61464853  0.28004773  0.00424895     0.02460
C1411       C  0.62292604  0.30230948  0.96843254    -0.13690
C1412       C  0.64177669  0.34032798  0.96927811    -0.00040
C1413       C  0.65146774  0.35597917  0.00588870    -0.12210
C1414       C  0.64187455  0.33780248  0.54138475     0.02450
C1415       C  0.62393467  0.29843455  0.54079842    -0.11630
H1416       H  0.61538503  0.28881489  0.94039615     0.08050
H1417       H  0.66718094  0.38270046  0.00702952     0.05580
H1418       H  0.61748480  0.28176201  0.56840469     0.05430
C1419       C  0.88732937  0.27492805  0.00279782     0.02460
C1420       C  0.87794691  0.29469552  0.96695016    -0.13690
C1421       C  0.86020396  0.33461315  0.96811048    -0.00040
C1422       C  0.85281360  0.35565528  0.00431524    -0.12210
C1423       C  0.86089897  0.33429133  0.53970964     0.02450
C1424       C  0.87847973  0.29434897  0.53926843    -0.11630
H1425       H  0.88332381  0.27734315  0.93883730     0.08050
H1426       H  0.83847519  0.38548245  0.00494611     0.05580
H1427       H  0.88454959  0.27733452  0.56691761     0.05430
C1428       C  0.88257346  0.68370728  0.50449027     0.02460
C1429       C  0.87341613  0.66178670  0.46915200    -0.13690
C1430       C  0.85418261  0.62481114  0.46993346    -0.00040
C1431       C  0.84503455  0.60849004  0.50715647    -0.12210
C1432       C  0.85344693  0.63152184  0.54295935     0.02450
C1433       C  0.87221817  0.66932214  0.54103838    -0.11630
H1434       H  0.88059953  0.67529899  0.94102974     0.08050
H1435       H  0.83015980  0.57988836  0.50809833     0.05580
H1436       H  0.87822217  0.68921087  0.56779565     0.05430
C1437       C  0.61606789  0.67004566  0.50552752     0.02460
C1438       C  0.62653968  0.65251944  0.96958783    -0.13690
C1439       C  0.64728054  0.61936881  0.96939872    -0.00040
C1440       C  0.65737938  0.60294675  0.50580705    -0.12210
C1441       C  0.64680600  0.61934741  0.54216533     0.02450
C1442       C  0.62578548  0.65194951  0.54168005    -0.11630
H1443       H  0.61947306  0.66714408  0.94171227     0.08050
H1444       H  0.67411646  0.57924904  0.50588290     0.05580
H1445       H  0.61789967  0.66563754  0.56947100     0.05430
O1446       O  0.72461119  0.39394653  0.67171918    -0.88850
C1447       C  0.78970807  0.42944147  0.86701740     1.11190
O1448       O  0.75179753  0.48237729  0.71430686    -1.36650
O1449       O  0.72516907  0.39718705  0.84176915    -0.90330
O1450       O  0.72403094  0.46473373  0.63444810    -0.91000
O1451       O  0.69719862  0.54072645  0.71339801    -0.79820
O1452       O  0.72938923  0.39612757  0.75623844    -1.01900
C1453       C  0.70440210  0.56376939  0.82876275     1.21240
O1454       O  0.74984835  0.57658507  0.75483836    -1.36800
Mn1455     Mn  0.77895176  0.51775887  0.75483065     1.82050
O1456       O  0.69756711  0.54105504  0.79753540    -0.78890
O1457       O  0.72429533  0.47141272  0.87545325    -0.88290
C1458       C  0.79575462  0.57310557  0.82850248     1.12320
C1459       C  0.71583694  0.42634706  0.86821917     1.07050
O1460       O  0.80411278  0.55302112  0.71231626    -0.79830
O1461       O  0.75198465  0.48381665  0.79600882    -1.33520
O1462       O  0.77272556  0.57153840  0.67857019    -0.99040
C1463       C  0.71158402  0.68466220  0.75408939     1.05760
Mn1464     Mn  0.75159369  0.52053192  0.85212660     1.48570
O1465       O  0.72007774  0.66864270  0.72092623    -0.88240
Mn1466     Mn  0.75132143  0.51626343  0.65772196     1.49560
O1467       O  0.77975559  0.39639522  0.66983301    -0.92120
C1468       C  0.70685777  0.40253720  0.75633389     1.18960
C1469       C  0.78945728  0.42443148  0.64357074     1.11010
Mn1470     Mn  0.72374558  0.51234809  0.75520594     1.80970
O1471       O  0.77320925  0.57403601  0.83106539    -0.97270
Mn1472     Mn  0.75266953  0.40017062  0.71256250     1.49260
C1473       C  0.71560265  0.42013474  0.64385561     1.07530
Mn1474     Mn  0.74902346  0.62135640  0.80737430     1.49930
C1475       C  0.78434369  0.68939276  0.75398886     1.10440
O1476       O  0.72650017  0.56724648  0.67686081    -1.03070
O1477       O  0.78144327  0.47484154  0.87468669    -0.92730
C1478       C  0.70403342  0.56152002  0.68159402     1.21720
O1479       O  0.72681897  0.57069204  0.83301990    -1.03460
O1480       O  0.78060593  0.40002978  0.84077129    -0.90860
O1481       O  0.77639528  0.67338088  0.78731111    -0.90470
O1482       O  0.78154502  0.46999221  0.63576260    -0.90490
Mn1483     Mn  0.75302270  0.40182245  0.79923135     1.47860
O1484       O  0.80434583  0.55244988  0.79735928    -0.78960
C1485       C  0.79521450  0.57346527  0.68156629     1.14770
O1486       O  0.69914178  0.44832627  0.75535839    -0.77690
O1487       O  0.80547421  0.45675583  0.75452056    -0.77310
Mn1488     Mn  0.74868429  0.61934518  0.70166862     1.51060
O1489       O  0.71999068  0.66981740  0.78750880    -0.89660
O1490       O  0.77678170  0.39979337  0.75544604    -0.97190
O1491       O  0.77582874  0.67305101  0.72090499    -0.92200
C1492       C  0.79910714  0.40970303  0.75450801     1.12560
C1493       C  0.63916828  0.22712065  0.75328652     0.02460
C1494       C  0.63442468  0.19969123  0.71778722    -0.13690
C1495       C  0.61869633  0.15589463  0.71810171    -0.00040
C1496       C  0.60840204  0.13964735  0.75392711    -0.12210
C1497       C  0.61095509  0.16951136  0.78821479     0.02450
C1498       C  0.62712111  0.21224069  0.78854009    -0.11630
H1499       H  0.64203270  0.21356677  0.69000448     0.08050
H1500       H  0.59512936  0.10772412  0.75403719     0.05580
H1501       H  0.62918016  0.23547593  0.81525319     0.05430
C1502       C  0.86455582  0.84244740  0.75456130     0.02460
C1503       C  0.87436980  0.86033957  0.71827558    -0.13690
C1504       C  0.89335430  0.89801178  0.71756201    -0.00040
C1505       C  0.90191646  0.91901433  0.75370711    -0.12210
C1506       C  0.89338360  0.90026333  0.79066054     0.02450
C1507       C  0.87427910  0.86247826  0.79054650    -0.11630
H1508       H  0.86811450  0.84300074  0.69062759     0.08050
H1509       H  0.91672360  0.94778238  0.75289252     0.05580
H1510       H  0.86763095  0.84701009  0.81835710     0.05430
C1511       C  0.63867176  0.85020381  0.75494694     0.02460
C1512       C  0.62719451  0.86376696  0.71902557    -0.13690
C1513       C  0.60633808  0.89665440  0.71866590    -0.00040
C1514       C  0.59741672  0.91727969  0.75481150    -0.12210
C1515       C  0.60815056  0.90275437  0.79110087     0.02450
C1516       C  0.62901456  0.86983973  0.79090662    -0.11630
H1517       H  0.63347720  0.84596392  0.69155065     0.08050
H1518       H  0.58095324  0.94179821  0.75494316     0.05580
H1519       H  0.63679671  0.85704536  0.81883486     0.05430
C1520       C  0.87012325  0.24041990  0.75857203     0.02460
C1521       C  0.87982848  0.21886468  0.72332598    -0.13690
C1522       C  0.89442286  0.17393397  0.72480675    -0.00040
C1523       C  0.89880617  0.15011624  0.76095763    -0.12210
C1524       C  0.89053933  0.17251392  0.79637724     0.02450
C1525       C  0.87603026  0.21788440  0.79529158    -0.11630
H1526       H  0.87654204  0.23760673  0.69516379     0.08050
H1527       H  0.91131840  0.11701628  0.76181416     0.05580
H1528       H  0.86981113  0.23596675  0.82269207     0.05430
C1529       C  0.65816151  0.80930897  0.75522245    -0.06790
C1530       C  0.65369715  0.76479547  0.77786051    -0.17920
C1531       C  0.67012104  0.72269390  0.77682877     0.10410
C1532       C  0.69201974  0.72511717  0.75344477    -0.06720
C1533       C  0.69629356  0.76920758  0.73022658    -0.17950
C1534       C  0.67985375  0.81140969  0.73116482     0.10440
S1535       S  0.66092531  0.66577068  0.80347841    -0.32920
S1536       S  0.68820406  0.86731115  0.70217334    -0.32920
H1537       H  0.67697143  0.90400044  0.72758541     0.28450
H1538       H  0.67152345  0.63056044  0.77622055     0.28440
H1539       H  0.63669413  0.76193040  0.79534632     0.19030
H1540       H  0.71304613  0.77155078  0.71213117     0.19040
C1541       C  0.80455341  0.72892731  0.75389239    -0.06790
C1542       C  0.82578187  0.72104606  0.77761668    -0.17920
C1543       C  0.84593984  0.75605992  0.77747356     0.10410
C1544       C  0.84456707  0.80173903  0.75441662    -0.06720
C1545       C  0.82327276  0.80936747  0.73064558    -0.17950
C1546       C  0.80338187  0.77378672  0.73018864     0.10440
S1547       S  0.87335528  0.73814111  0.80537907    -0.32920
S1548       S  0.77651167  0.78910714  0.70015938    -0.32920
H1549       H  0.75878285  0.76996658  0.72725924     0.28450
H1550       H  0.89067026  0.76035032  0.77898790     0.28440
H1551       H  0.82706809  0.68629412  0.79535130     0.19030
H1552       H  0.82183229  0.84408663  0.71293916     0.19040
C1553       C  0.68954949  0.35732671  0.75641984    -0.06790
C1554       C  0.66546289  0.36303979  0.74022057    -0.17920
C1555       C  0.64863755  0.32131601  0.73841935     0.10410
C1556       C  0.65584235  0.27274180  0.75359905    -0.06720
C1557       C  0.67969813  0.26682885  0.76986902    -0.17950
C1558       C  0.69679724  0.30802611  0.77102856     0.10440
S1559       S  0.61848127  0.33250179  0.71600797    -0.32920
S1560       S  0.72754730  0.29608528  0.79155100    -0.32920
H1561       H  0.72389812  0.24386720  0.80176249     0.28450
H1562       H  0.60520580  0.29508860  0.73759343     0.28440
H1563       H  0.65979756  0.40007935  0.72831417     0.19030
H1564       H  0.68496067  0.22930555  0.78128878     0.19040
C1565       C  0.81769604  0.36668865  0.75339757    -0.06790
C1566       C  0.84219296  0.37584454  0.76713878    -0.17920
C1567       C  0.85985295  0.33571672  0.76923071     0.10410
C1568       C  0.85311610  0.28533338  0.75650989    -0.06720
C1569       C  0.82911002  0.27636255  0.74158368    -0.17950
C1570       C  0.81126142  0.31589861  0.74005399     0.10440
S1571       S  0.89044453  0.35119846  0.78871093    -0.32920
S1572       S  0.78057325  0.29950607  0.72086099    -0.32920
H1573       H  0.78645497  0.24998403  0.70583256     0.28450
H1574       H  0.90358200  0.31206959  0.76829257     0.28440
H1575       H  0.84756515  0.41433538  0.77683074     0.19030
H1576       H  0.82421239  0.23753565  0.73190932     0.19040
C1577       C  0.68665738  0.57947351  0.64965886    -0.06790
C1578       C  0.69644106  0.61549120  0.62261288    -0.17920
C1579       C  0.68355977  0.63000648  0.58854712     0.10410
C1580       C  0.65981599  0.60853009  0.58033793    -0.06720
C1581       C  0.64876958  0.57603046  0.60884933    -0.17950
C1582       C  0.66195824  0.56082888  0.64315947     0.10440
S1583       S  0.69867491  0.67671952  0.55705495    -0.32920
S1584       S  0.64661500  0.51617328  0.67608833    -0.32920
H1585       H  0.66717352  0.48249627  0.67908089     0.28450
H1586       H  0.67655714  0.69990630  0.54355487     0.28440
H1587       H  0.71461262  0.63275812  0.62791902     0.19030
H1588       H  0.63014566  0.56073034  0.60356909     0.19040
C1589       C  0.68702438  0.58096479  0.86113857    -0.06790
C1590       C  0.69591495  0.61962133  0.88727462    -0.17920
C1591       C  0.68294560  0.63334874  0.92188124     0.10410
C1592       C  0.66040239  0.60793479  0.93137092    -0.06720
C1593       C  0.65037081  0.57184595  0.90419794    -0.17950
C1594       C  0.66333412  0.55827326  0.86914933     0.10440
S1595       S  0.69516128  0.68414681  0.95352565    -0.32920
S1596       S  0.64952600  0.50948295  0.83761905    -0.32920
H1597       H  0.65081034  0.54040401  0.80349771     0.28450
H1598       H  0.71733272  0.69347445  0.43215180     0.28440
H1599       H  0.71340242  0.63899294  0.88069731     0.19030
H1600       H  0.63271725  0.55302196  0.91090255     0.19040
C1601       C  0.81019526  0.59819346  0.64901167    -0.06790
C1602       C  0.83634532  0.60406915  0.65223866    -0.17920
C1603       C  0.85128669  0.61422664  0.61849439     0.10410
C1604       C  0.83974001  0.62184829  0.58098560    -0.06720
C1605       C  0.81359990  0.62260078  0.57934584    -0.17950
C1606       C  0.79885697  0.61162631  0.61227428     0.10440
S1607       S  0.88476260  0.61043774  0.62471101    -0.32920
S1608       S  0.76560179  0.61556835  0.60400822    -0.32920
H1609       H  0.76188786  0.64959085  0.63631736     0.28450
H1610       H  0.88944736  0.58784426  0.58733943     0.28440
H1611       H  0.84542312  0.59550185  0.68014110     0.19030
H1612       H  0.80434271  0.63196313  0.55171865     0.19040
C1613       C  0.81118691  0.59126680  0.86317814    -0.06500
C1614       C  0.83749950  0.58895657  0.86182181    -0.17920
C1615       C  0.85218183  0.59715501  0.89611882     0.10410
C1616       C  0.84048917  0.61059865  0.93263498    -0.06720
C1617       C  0.81441263  0.61556959  0.93328535    -0.17950
C1618       C  0.79980314  0.60669754  0.89969955     0.10440
S1619       S  0.88541572  0.58626973  0.89167543    -0.32920
S1620       S  0.76665542  0.61675806  0.90672311    -0.32920
H1621       H  0.76485967  0.65165660  0.87497903     0.28450
H1622       H  0.88870587  0.56913304  0.93081186     0.28440
H1623       H  0.84668565  0.57812911  0.83432158     0.19030
H1624       H  0.80514387  0.62797804  0.96036220     0.19040
C1625       C  0.81034766  0.40014345  0.62129543    -0.06790
C1626       C  0.80873624  0.34675112  0.61270925    -0.17920
C1627       C  0.82699766  0.32173166  0.58992187     0.10410
C1628       C  0.84745804  0.35064466  0.57541489    -0.06720
C1629       C  0.85030678  0.40235113  0.58705414    -0.17950
C1630       C  0.83229928  0.42672493  0.61043875     0.10440
S1631       S  0.82239170  0.25373046  0.57917078    -0.32920
S1632       S  0.83940737  0.49028633  0.62724064    -0.32920
H1633       H  0.82916814  0.48298916  0.66522748     0.28450
H1634       H  0.83161621  0.25405752  0.54023286     0.28440
H1635       H  0.79258974  0.32466648  0.62241615     0.19030
H1636       H  0.86618679  0.42451548  0.57631592     0.19040
C1637       C  0.84485310  0.34903020  0.93402472    -0.06790
C1638       C  0.85253133  0.39071837  0.91058995    -0.17920
C1639       C  0.83515683  0.41807890  0.88778858     0.10410
C1640       C  0.80941071  0.40576696  0.89093930    -0.06720
C1641       C  0.80213870  0.36232705  0.91274594    -0.17950
C1642       C  0.81956644  0.33315360  0.93333199     0.10440
S1643       S  0.84735669  0.46647879  0.85498833    -0.32920
S1644       S  0.80807619  0.27845395  0.96100536    -0.32920
H1645       H  0.83068446  0.25065518  0.46016367     0.28450
H1646       H  0.82655073  0.46930210  0.82984471     0.28440
H1647       H  0.87195815  0.40305094  0.91113882     0.19030
H1648       H  0.78259490  0.35071947  0.91348323     0.19040
C1649       C  0.69392150  0.39751631  0.62249960    -0.06790
C1650       C  0.67692348  0.43106112  0.60425016    -0.17920
C1651       C  0.65643303  0.41181725  0.58316688     0.10410
C1652       C  0.65367643  0.35775461  0.57775978    -0.06720
C1653       C  0.66934925  0.32407259  0.59827396    -0.17950
C1654       C  0.68930718  0.34316725  0.62075718     0.10440
S1655       S  0.63571394  0.45783446  0.56014575    -0.32920
S1656       S  0.70984813  0.29545191  0.64186816    -0.32920
H1657       H  0.70152960  0.30598436  0.68068281     0.28450
H1658       H  0.61549668  0.42323701  0.55559317     0.28440
H1659       H  0.67981447  0.47250050  0.60578788     0.19030
H1660       H  0.66753142  0.28260915  0.59368974     0.19040
C1661       C  0.65356556  0.36373634  0.93377610    -0.06790
C1662       C  0.65948475  0.41679817  0.93689984    -0.17920
C1663       C  0.68114747  0.43636568  0.91960454     0.10410
C1664       C  0.69378757  0.40662680  0.89044992    -0.06720
C1665       C  0.68466525  0.35642782  0.88161339    -0.17950
C1666       C  0.66573279  0.33372550  0.90436682     0.10440
S1667       S  0.69385040  0.49417036  0.94225047    -0.32920
S1668       S  0.65999650  0.26552369  0.89689130    -0.32920
H1669       H  0.66377073  0.25286263  0.93693948     0.28450
H1670       H  0.71739290  0.47164996  0.94938283     0.28440
H1671       H  0.65008885  0.44044026  0.95911177     0.19030
H1672       H  0.69368907  0.33280015  0.85914211     0.19040
C1673       C  0.59278458  0.15990696  0.82006675    -0.06790
C1674       C  0.60085682  0.13676223  0.85516063    -0.17920
C1675       C  0.58361330  0.11372924  0.88095081     0.10410
C1676       C  0.55792443  0.11269901  0.87056475    -0.06720
C1677       C  0.54984321  0.13862561  0.83675087    -0.17950
C1678       C  0.56685691  0.16315845  0.81191131     0.10440
S1679       S  0.59588622  0.08629070  0.92582395    -0.32920
S1680       S  0.55440961  0.19596234  0.76912794    -0.32920
H1681       H  0.57437499  0.23111684  0.76518092     0.28450
H1682       H  0.57490385  0.05643352  0.93559784     0.28440
H1683       H  0.62072950  0.13440605  0.86149759     0.19030
H1684       H  0.53002887  0.13993412  0.82970504     0.19040
C1685       C  0.60625892  0.13594757  0.68197814    -0.06790
C1686       C  0.59099979  0.17115069  0.66206315    -0.17920
C1687       C  0.56993928  0.15452998  0.64109777     0.10410
C1688       C  0.56387434  0.10080205  0.63927103    -0.06720
C1689       C  0.58068400  0.06528726  0.65604286    -0.17950
C1690       C  0.60197234  0.08227565  0.67665457     0.10440
S1691       S  0.55019121  0.20503589  0.62196852    -0.32920
S1692       S  0.62200682  0.03420068  0.69862447    -0.32920
H1693       H  0.64276129  0.06725606  0.70373301     0.28450
H1694       H  0.55721500  0.19450667  0.58254658     0.28440
H1695       H  0.59387515  0.21240593  0.66644439     0.19030
H1696       H  0.57699985  0.02414654  0.65384126     0.19040
C1697       C  0.56622850  0.14732201  0.50656619    -0.06790
C1698       C  0.55771659  0.19432866  0.99054159    -0.17920
C1699       C  0.57298133  0.23818039  0.98935372     0.10410
C1700       C  0.59762131  0.23518059  0.00389339    -0.06720
C1701       C  0.60641575  0.18824713  0.51925086    -0.17950
C1702       C  0.59102901  0.14448765  0.52110191     0.10440
S1703       S  0.55961026  0.29693443  0.97002950    -0.32920
S1704       S  0.60424135  0.08742229  0.54319185    -0.32920
H1705       H  0.58258510  0.07371509  0.56422939     0.28450
H1706       H  0.57290722  0.33104944  0.99502674     0.28440
H1707       H  0.53878758  0.19729626  0.97918999     0.19030
H1708       H  0.62541729  0.18594902  0.53043978     0.19040
C1709       C  0.94346338  0.11335000  0.87558509    -0.06790
C1710       C  0.92384293  0.08103698  0.86288205    -0.17920
C1711       C  0.90350811  0.10113944  0.84194272     0.10410
C1712       C  0.90292894  0.15445549  0.83273860    -0.06720
C1713       C  0.92125598  0.18741954  0.84855857    -0.17950
C1714       C  0.94170412  0.16758320  0.86934699     0.10440
S1715       S  0.87975698  0.05659558  0.82476790    -0.32920
S1716       S  0.96682762  0.21160940  0.88267335    -0.32920
H1717       H  0.95365486  0.25795901  0.87622263     0.28450
H1718       H  0.86128398  0.09446270  0.81847165     0.28440
H1719       H  0.92453376  0.03988949  0.86869362     0.19030
H1720       H  0.92111803  0.22797102  0.84051734     0.19040
C1721       C  0.90997639  0.15651258  0.69143023    -0.06790
C1722       C  0.93385978  0.17871751  0.68886050    -0.17920
C1723       C  0.95311511  0.15361427  0.66853901     0.10410
C1724       C  0.94829486  0.10592588  0.64916342    -0.06720
C1725       C  0.92423208  0.08413995  0.65087066    -0.17950
C1726       C  0.90496231  0.10934335  0.67159909     0.10440
S1727       S  0.98391491  0.18257907  0.67075076    -0.32920
S1728       S  0.87449158  0.07939495  0.67291803    -0.32920
H1729       H  0.86104565  0.12529450  0.68037582     0.28450
H1730       H  0.99726456  0.13560034  0.67004220     0.28440
H1731       H  0.93805239  0.21376180  0.70554542     0.19030
H1732       H  0.92036105  0.04796628  0.63559281     0.19040
C1733       C  0.90480730  0.23110783  0.00274563    -0.06790
C1734       C  0.89655557  0.18376891  0.51820861    -0.17920
C1735       C  0.91272183  0.14149592  0.52122201     0.10410
C1736       C  0.93773830  0.14634119  0.00776505    -0.06720
C1737       C  0.94572866  0.19378032  0.99173071    -0.17950
C1738       C  0.92966322  0.23615372  0.98935950     0.10440
S1739       S  0.90036904  0.08381177  0.54396104    -0.32920
S1740       S  0.94222386  0.29575012  0.96989621    -0.32920
H1741       H  0.92787714  0.32922465  0.99387236     0.28450
H1742       H  0.92207312  0.07363926  0.56599906     0.28440
H1743       H  0.87743752  0.18012943  0.52878657     0.19030
H1744       H  0.96478998  0.19817169  0.98112093     0.19040
C1745       C  0.93935968  0.93590462  0.89490742    -0.06790
C1746       C  0.91305472  0.93420513  0.89876750    -0.17920
C1747       C  0.89725812  0.92449629  0.86576268     0.10410
C1748       C  0.90784555  0.91379747  0.82781821    -0.06720
C1749       C  0.93399910  0.91460041  0.82454398    -0.17950
C1750       C  0.94962417  0.92748875  0.85632258     0.10440
S1751       S  0.86397116  0.92873499  0.87411079    -0.32920
S1752       S  0.98259481  0.93456351  0.84496581    -0.32920
H1753       H  0.98045796  0.93869708  0.80352398     0.28450
H1754       H  0.85799749  0.94571126  0.83576595     0.28440
H1755       H  0.90466127  0.94172719  0.92750451     0.19030
H1756       H  0.94255876  0.90473917  0.79638168     0.19040
C1757       C  0.90789593  0.90819745  0.68044644    -0.06790
C1758       C  0.93297596  0.89259438  0.68002754    -0.17920
C1759       C  0.94832739  0.89955721  0.64688627     0.10410
C1760       C  0.93915805  0.92583027  0.61288436    -0.06720
C1761       C  0.91362325  0.93994817  0.61271218    -0.17950
C1762       C  0.89790211  0.93087277  0.64576975     0.10440
S1763       S  0.97924685  0.87209792  0.65043263    -0.32920
S1764       S  0.86549864  0.94960689  0.64190653    -0.32920
H1765       H  0.86150903  0.95841012  0.68260607     0.28450
H1766       H  0.97774308  0.84703487  0.61335545     0.28440
H1767       H  0.94062144  0.87339150  0.70580495     0.19030
H1768       H  0.90595394  0.95939330  0.58710909     0.19040
C1769       C  0.94440815  0.78951529  0.50218079    -0.06790
C1770       C  0.92305616  0.80017773  0.97952133    -0.17920
C1771       C  0.90222644  0.76735704  0.98051004     0.10410
C1772       C  0.90312752  0.72188677  0.50363297    -0.06720
C1773       C  0.92459234  0.71125501  0.52605261    -0.17950
C1774       C  0.94525361  0.74429866  0.52539834     0.10440
S1775       S  0.87481610  0.78717070  0.95332388    -0.32920
S1776       S  0.97245993  0.72546844  0.55352056    -0.32920
H1777       H  0.99012497  0.74438118  0.52619820     0.28450
H1778       H  0.85733945  0.76553761  0.97972192     0.28440
H1779       H  0.92226369  0.83527240  0.96210158     0.19030
H1780       H  0.92548041  0.67620012  0.54349061     0.19040
C1781       C  0.56499197  0.92816360  0.89812687    -0.06790
C1782       C  0.58872152  0.95149895  0.89427892    -0.17920
C1783       C  0.60328950  0.94473273  0.85975332     0.10410
C1784       C  0.59430451  0.91273211  0.82864640    -0.06720
C1785       C  0.57163879  0.88630496  0.83381524    -0.17950
C1786       C  0.55713676  0.89285018  0.86812826     0.10440
S1787       S  0.63265866  0.97910780  0.85675483    -0.32920
S1788       S  0.52955176  0.85288654  0.87391137    -0.32920
H1789       H  0.52930773  0.83119087  0.83551419     0.28450
H1790       H  0.63328000  0.98307875  0.81521763     0.28440
H1791       H  0.59562087  0.97653300  0.91765971     0.19030
H1792       H  0.56547945  0.85969433  0.81082146     0.19040
C1793       C  0.56496863  0.92469808  0.61045692    -0.06790
C1794       C  0.55318209  0.90398501  0.64425584    -0.17920
C1795       C  0.56629144  0.89287324  0.67883338     0.10410
C1796       C  0.59210776  0.90417515  0.68119117    -0.06720
C1797       C  0.60445461  0.92193809  0.64694045    -0.17950
C1798       C  0.59131410  0.93156185  0.61155562     0.10440
S1799       S  0.54884049  0.86262258  0.71833020    -0.32920
S1800       S  0.60929277  0.95281700  0.56956346    -0.32920
H1801       H  0.59707023  0.91978674  0.54242536     0.28450
H1802       H  0.56863165  0.83103022  0.73118364     0.28440
H1803       H  0.53324316  0.89640435  0.64412285     0.19030
H1804       H  0.62447342  0.92895352  0.64790395     0.19040
C1805       C  0.55746478  0.78473609  0.50114044    -0.06790
C1806       C  0.57892863  0.79401799  0.52404125    -0.17920
C1807       C  0.59848450  0.75804886  0.52525914     0.10410
C1808       C  0.59610269  0.71008687  0.50485521    -0.06720
C1809       C  0.57441307  0.70058062  0.98238017    -0.17950
C1810       C  0.55528050  0.73748751  0.98002540     0.10440
S1811       S  0.62647251  0.77706764  0.55145914    -0.32920
S1812       S  0.52765825  0.72081059  0.95220164    -0.32920
H1813       H  0.53188340  0.75963465  0.92400525     0.28450
H1814       H  0.64283452  0.75565774  0.52304579     0.28440
H1815       H  0.58075271  0.83022231  0.54027679     0.19030
H1816       H  0.57232573  0.66403212  0.96668069     0.19040
loop_ 
_geom_bond_atom_site_label_1 
_geom_bond_atom_site_label_2 
_geom_bond_distance 
_geom_bond_site_symmetry_2 
_ccdc_geom_bond_type 
O1           C28   1.275       .  A
O1          Mn27   2.123   1_545  S
C2           O32   1.271       .  A
C2          O489   1.273   1_554  A
C2          C443   1.476       .  S
O3          Mn21   2.126       .  S
O3         Mn464   2.173   1_545  S
O3         Mn933   2.180   1_445  S
O3         Mn935   2.112   1_545  S
O4          C468   1.270       .  A
O4         Mn946   2.081       .  S
O5           C28   1.260       .  A
O5         Mn929   2.045       .  S
O6           C33   1.250       .  A
O6          Mn25   2.080   1_545  S
O7          Mn27   1.945       .  S
O7         Mn946   1.963       .  S
O7           C23   1.213       .  S
C8           O11   1.261       .  A
C8          C398   1.508       .  S
C8           O34   1.217       .  S
O9          Mn43   2.118       .  S
O9         Mn937   2.119   1_545  S
O9         Mn918   2.179   1_545  S
O9         Mn479   2.185   1_545  S
Mn10         O39   2.133       .  S
Mn10         O15   2.092   1_565  S
Mn10        O496   2.133   1_554  S
Mn10         O16   2.156       .  S
Mn10        O457   2.173   1_564  S
Mn10        O917   2.179   1_565  S
O11        Mn479   2.146       .  S
O12          C14   1.270       .  A
O12         Mn19   2.079       .  S
C13          O39   1.255       .  A
C13         C431   1.498       .  S
C13          O26   1.216       .  S
C14         O458   1.270   1_554  A
C14         C407   1.464       .  S
O15          C40   1.250       .  A
O16        Mn927   2.113       .  S
O16        Mn492   2.117   1_554  S
O16       Mn1387   2.151   1_455  S
O17        Mn475   1.928   1_554  S
O17        Mn951   1.935       .  S
O17          C40   1.218       .  S
C18          O44   1.272       .  A
C18          O20   1.263       .  A
C18         C362   1.465       .  S
Mn19        O940   2.085       .  S
Mn19        O924   2.113       .  S
Mn19         O34   1.972       .  S
Mn19        O934   1.954       .  S
O20         Mn43   2.056       .  S
Mn21         O37   2.067       .  S
Mn21        O913   2.045   1_455  S
Mn21        O471   1.928       .  S
Mn21        O939   1.947   1_455  S
O22          C24   1.272       .  A
O22        Mn935   2.102   1_545  S
C23          O41   1.260       .  A
C23         C383   1.511       .  S
C24          O37   1.263       .  A
C24         C314   1.461       .  S
Mn25         O41   2.162       .  S
Mn25        O465   2.146       .  S
Mn25        O911   2.180   1_565  S
Mn25        O463   2.185   1_565  S
Mn25       O1378   2.151       .  S
O26         Mn29   1.948       .  S
O26        Mn927   1.954       .  S
Mn27        O930   2.102   1_565  S
Mn27        O911   2.112   1_565  S
Mn27        O953   1.971       .  S
C28         C347   1.479       .  S
Mn29         O36   2.121   1_565  S
Mn29        O952   2.108   1_465  S
Mn29        O917   2.119   1_565  S
Mn29        O942   1.960   1_455  S
C30          O36   1.276       .  A
C30          O46   1.260       .  A
C30         C326   1.489       .  S
O31        Mn929   1.947       .  S
O31        Mn497   1.946       .  S
O31          C33   1.222       .  S
O32        Mn927   2.085       .  S
C33         C374   1.476       .  S
O34        Mn937   1.960       .  S
O35         C456   1.273       .  A
O35         Mn38   2.101       .  S
Mn38        O912   2.081   1_455  S
Mn38        O470   2.117       .  S
Mn38         O45   1.970       .  S
Mn38        O915   1.963   1_455  S
C40         C335   1.477       .  S
O42          C47   1.257       .  A
O42        Mn464   2.133       .  S
Mn43        O954   2.053       .  S
Mn43        O925   1.935       .  S
Mn43        O485   1.946       .  S
O44        Mn937   2.108   1_545  S
O45        Mn935   1.971       .  S
O45          C47   1.217       .  S
O46        Mn951   2.053       .  S
C47         C419   1.498       .  S
C48         C338   1.470       .  S
C48          C49   1.411       .  A
C48         C507   1.408       .  A
C49          C50   1.404       .  A
C49          H54   1.083       .  S
C50         C299   1.484       .  S
C50          C51   1.396       .  A
C51         C506   1.386       .  A
C51          H55   1.085       .  S
C52         C290   1.469       .  S
C52          C53   1.395       .  A
C52         C505   1.386       .  A
C53         C502   1.408       .  A
C53          H56   1.084       .  S
C57         C371   1.467       .  S
C57          C58   1.409       .  A
C57         C516   1.406       .  A
C58          C59   1.401       .  A
C58          H63   1.084       .  S
C59         C275   1.464       .  S
C59          C60   1.389       .  A
C60         C515   1.388       .  A
C60          H64   1.087       .  S
C61         C266   1.461       .  S
C61          C62   1.395       .  A
C61         C514   1.388       .  A
C62         C511   1.406       .  A
C62          H65   1.084       .  S
C66         C410   1.474       .  S
C66          C67   1.403   1_554  A
C66          C71   1.402       .  A
C67          C68   1.401       .  A
C67         H526   1.082       .  S
C68         C708   1.498       .  S
C68          C69   1.413   1_556  A
C69          C70   1.415       .  A
C69          H73   1.084       .  S
C70         C242   1.498       .  S
C70          C71   1.399       .  A
C71          H74   1.083       .  S
H72         C521   1.082       .  S
C75         C446   1.486       .  S
C75          C80   1.409       .  A
C75         C530   1.406   1_554  A
C76          C77   1.400       .  A
C76         C529   1.406       .  A
C76          H81   1.084       .  S
C77         C230   1.488       .  S
C77         C532   1.410       .  A
C78          C79   1.411       .  A
C78         C531   1.410   1_554  A
C78          H82   1.084       .  S
C79         C218   1.492       .  S
C79          C80   1.404       .  A
C80          H83   1.084       .  S
O84         C111   1.258       .  A
O84        Mn110   2.042       .  S
C85         O118   1.259       .  A
C85         O115   1.277       .  A
C85         C278   1.464       .  S
O86         Mn93   2.187       .  S
O86        Mn104   2.105       .  S
O86        Mn108   2.174       .  S
O86        Mn110   2.121       .  S
O87          C97   1.264       .  A
O87        Mn121   2.069       .  S
O88         C111   1.277       .  A
O88        Mn104   2.118       .  S
O89         C116   1.256       .  A
O89        Mn108   2.135       .  S
O90        Mn121   1.928       .  S
O90        Mn110   1.929       .  S
O90         C106   1.215       .  S
C91          O94   1.255       .  A
C91         C227   1.497       .  S
C91         O117   1.218       .  S
O92        Mn112   2.107       .  S
O92         Mn93   2.174       .  S
O92        Mn126   2.113       .  S
O92        Mn108   2.163       .  S
Mn93        O122   2.162       .  S
Mn93         O98   2.168       .  S
Mn93        O125   2.119       .  S
Mn93         O99   2.186       .  S
O94        Mn108   2.126       .  S
O95          C97   1.268       .  A
O95        Mn102   2.087       .  S
C96         O122   1.260       .  A
C96         C251   1.503       .  S
C96         O109   1.207       .  S
C97         C302   1.486       .  S
O98         C123   1.261       .  A
O99        Mn102   2.109       .  S
O99        Mn121   2.119       .  S
O99        Mn108   2.176       .  S
O100       Mn104   1.953       .  S
O100       Mn126   1.940       .  S
O100        C123   1.206       .  S
C101        O127   1.276       .  A
C101        O103   1.272       .  A
C101        C170   1.478       .  S
Mn102       O115   2.129       .  S
Mn102       O117   1.965       .  S
Mn102       O109   1.936       .  S
O103       Mn126   2.089       .  S
Mn104       O120   2.137       .  S
Mn104       O114   1.973       .  S
O105        C107   1.258       .  A
O105       Mn110   2.042       .  S
C106        O124   1.252       .  A
C106        C191   1.487       .  S
C107        O120   1.279       .  A
C107        C263   1.481       .  S
Mn108       O124   2.108       .  S
O109       Mn112   1.955       .  S
Mn110       O128   1.938       .  S
C111        C287   1.481       .  S
Mn112       O119   2.097       .  S
Mn112       O127   2.107       .  S
Mn112       O117   1.967       .  S
C113        O119   1.272       .  A
C113        O129   1.274       .  A
C113        C179   1.483       .  S
O114       Mn126   1.972       .  S
O114        C116   1.219       .  S
C116        C215   1.499       .  S
O118       Mn121   2.035       .  S
Mn121       O128   1.946       .  S
C123        C239   1.503       .  S
O125        C130   1.260       .  A
Mn126       O129   2.103       .  S
O128        C130   1.219       .  S
C130        C203   1.490       .  S
C131        C194   1.474       .  S
C131        C132   1.409       .  A
C131        C136   1.407       .  A
C132        C133   1.407       .  A
C132        H137   1.084       .  S
C133        C323   1.477       .  S
C133        C134   1.394       .  A
C134        C135   1.391       .  A
C134        H138   1.085       .  S
C135        C311   1.469       .  S
C135        C136   1.399       .  A
C136        H139   1.084       .  S
C140        C182   1.496       .  S
C140        C141   1.411       .  A
C140        C145   1.414       .  A
C141        C142   1.403       .  A
C141        H146   1.084       .  S
C142        C395   1.497       .  S
C142        C143   1.406       .  A
C143        C144   1.415       .  A
C143        H147   1.084       .  S
C144        C386   1.511       .  S
C144        C145   1.410       .  A
C145        H148   1.081       .  S
C149        C167   1.483       .  S
C149        C150   1.405       .  A
C149        C154   1.408       .  A
C150        C151   1.401       .  A
C150        H155   1.084       .  S
C151        C434   1.490       .  S
C151        C152   1.409       .  A
C152        C153   1.406       .  A
C152        H156   1.084       .  S
C153        C422   1.486       .  S
C153        C154   1.402       .  A
C154        H157   1.084       .  S
C158        C206   1.476       .  S
C158        C159   1.407       .  A
C158        C163   1.408       .  A
C159        C160   1.399       .  A
C159        H164   1.084       .  S
C160        C359   1.466       .  S
C160        C161   1.390       .  A
C161        C162   1.394       .  A
C161        H165   1.086       .  S
C162        C350   1.473       .  S
C162        C163   1.405       .  A
C163        H166   1.084       .  S
C167        C168   1.404       .  A
C167        C172   1.414       .  A
C168        C169   1.397       .  A
C168        H177   1.085       .  S
C169        C170   1.411       .  A
C169        S173   1.795       .  S
C170        C171   1.404       .  A
C171        C172   1.400       .  A
C171        H178   1.084       .  S
C172        S174   1.803       .  S
S173        H176   1.406       .  S
S174        H175   1.406       .  S
C179        C180   1.404       .  A
C179        C184   1.413       .  A
C180        C181   1.404       .  A
C180        H189   1.084       .  S
C181        C182   1.419       .  A
C181        S185   1.804       .  S
C182        C183   1.407       .  A
C183        C184   1.402       .  A
C183        H190   1.083       .  S
C184        S186   1.804       .  S
S185        H188   1.407       .  S
S186        H187   1.406       .  S
C191        C192   1.407       .  A
C191        C196   1.422       .  A
C192        C193   1.402       .  A
C192        H201   1.083       .  S
C193        C194   1.412       .  A
C193        S197   1.804       .  S
C194        C195   1.397       .  A
C195        C196   1.400       .  A
C195        H202   1.082       .  S
C196        S198   1.811       .  S
S197        H200   1.404       .  S
S198        H199   1.406       .  S
C203        C204   1.407       .  A
C203        C208   1.423       .  A
C204        C205   1.404       .  A
C204        H213   1.081       .  S
C205        C206   1.411       .  A
C205        S209   1.804       .  S
C206        C207   1.396       .  A
C207        C208   1.398       .  A
C207        H214   1.083       .  S
C208        S210   1.811       .  S
S209        H212   1.405       .  S
S210        H211   1.406       .  S
C215        C216   1.406       .  A
C215        C220   1.420       .  A
C216        C217   1.394       .  A
C216        H225   1.081       .  S
C217        C218   1.410       .  A
C217        S221   1.801       .  S
C218        C219   1.409       .  A
C219        C220   1.414       .  A
C219        H226   1.084       .  S
C220        S222   1.801       .  S
S221        H224   1.403       .  S
S222        H223   1.405       .  S
C227        C228   1.408       .  A
C227        C232   1.419       .  A
C228        C229   1.400       .  A
C228        H237   1.082       .  S
C229        C230   1.407       .  A
C229        S233   1.805       .  S
C230        C231   1.407       .  A
C231        C232   1.411       .  A
C231        H238   1.084       .  S
C232        S234   1.799       .  S
S233        H690   1.406       .  S
S234        H235   1.407       .  S
H236        S687   1.406       .  S
C239        C240   1.409       .  A
C239        C244   1.425       .  A
C240        C241   1.415       .  A
C240        H249   1.084       .  S
C241        C242   1.423       .  A
C241        S245   1.803       .  S
C242        C243   1.397       .  A
C243        C244   1.391       .  A
C243        H250   1.084       .  S
C244        S246   1.801       .  S
S245        H248   1.406       .  S
S246        H247   1.408       .  S
C251        C252   1.407       .  A
C251        C256   1.427       .  A
C252        C253   1.412       .  A
C252        H261   1.083       .  S
C253        C254   1.421       .  A
C253        S257   1.803       .  S
C254        C522   1.498       .  S
C254        C255   1.399       .  A
C255        C256   1.393       .  A
C255        H262   1.084       .  S
C256        S258   1.804       .  S
S257        H260   1.406       .  S
S258        H259   1.408       .  S
C263        C264   1.408       .  A
C263        C268   1.406       .  A
C264        C265   1.396       .  A
C264        H273   1.084       .  S
C265        C266   1.411       .  A
C265        S269   1.805       .  S
C266        C267   1.395       .  A
C267        C268   1.391       .  A
C267        H274   1.085       .  S
C268        S270   1.771       .  S
S269        H272   1.402       .  S
S270        H271   1.406       .  S
C275        C276   1.400       .  A
C275        C280   1.410       .  A
C276        C277   1.401       .  A
C276        H285   1.085       .  S
C277        C278   1.414       .  A
C277        S281   1.795       .  S
C278        C279   1.399       .  A
C279        C280   1.388       .  A
C279        H286   1.085       .  S
C280        S282   1.804       .  S
S281        H284   1.401       .  S
S282        H737   1.405       .  S
H283        S736   1.405       .  S
C287        C288   1.402       .  A
C287        C292   1.424       .  A
C288        C289   1.394       .  A
C288        H297   1.081       .  S
C289        C290   1.412       .  A
C289        S293   1.805       .  S
C290        C291   1.396       .  A
C291        C292   1.396       .  A
C291        H298   1.084       .  S
C292        S294   1.802       .  S
S293        H296   1.407       .  S
S294        H295   1.406       .  S
C299        C300   1.407       .  A
C299        C304   1.412       .  A
C300        C301   1.390       .  A
C300        H309   1.085       .  S
C301        C302   1.414       .  A
C301        S305   1.802       .  S
C302        C303   1.412       .  A
C303        C304   1.399       .  A
C303        H310   1.082       .  S
C304        S306   1.801       .  S
S305        H308   1.408       .  S
S306        H307   1.407       .  S
C311        C312   1.399       .  A
C311        C316   1.415       .  A
C312        C313   1.400       .  A
C312        H321   1.085       .  S
C313        C314   1.416       .  A
C313        S317   1.800       .  S
C314        C315   1.396       .  A
C315        C316   1.390       .  A
C315        H322   1.085       .  S
C316        S318   1.806       .  S
S317        H320   1.399       .  S
S318        H319   1.405       .  S
C323        C324   1.398       .  A
C323        C328   1.413       .  A
C324        C325   1.394       .  A
C324        H333   1.084       .  S
C325        C326   1.423       .  A
C325        S329   1.802       .  S
C326        C327   1.406       .  A
C327        C328   1.401       .  A
C327        H334   1.081       .  S
C328        S330   1.804       .  S
S329        H332   1.405       .  S
S330        H331   1.407       .  S
C335        C340   1.415       .  A
C335        C790   1.408   1_554  A
C336        C337   1.394       .  A
C336        C789   1.408       .  A
C336        H345   1.084       .  S
C337        C338   1.407       .  A
C337        S341   1.803       .  S
C338        C793   1.403       .  A
C339        C340   1.397       .  A
C339        C792   1.403       .  A
C339        H346   1.085       .  S
C340        S342   1.801       .  S
S341        H344   1.406       .  S
S342        H343   1.402       .  S
C347        C348   1.403       .  A
C347        C352   1.420       .  A
C348        C349   1.399       .  A
C348        H357   1.082       .  S
C349        C350   1.413       .  A
C349        S353   1.803       .  S
C350        C351   1.399       .  A
C351        C352   1.398       .  A
C351        H358   1.083       .  S
C352        S354   1.811       .  S
S353        H356   1.407       .  S
S354        H355   1.407       .  S
C359        C360   1.400       .  A
C359        C364   1.409       .  A
C360        C361   1.393       .  A
C360        H369   1.084       .  S
C361        C362   1.412       .  A
C361        S365   1.806       .  S
C362        C363   1.403       .  A
C363        C364   1.401       .  A
C363        H370   1.082       .  S
C364        S366   1.800       .  S
S365        H368   1.407       .  S
S366        H367   1.407       .  S
C371        C376   1.407       .  A
C371        C826   1.402       .  A
C372        C373   1.396       .  A
C372        C825   1.402       .  A
C372        H381   1.085       .  S
C373        C828   1.416       .  A
C373        S377   1.803       .  S
C374        C375   1.407       .  A
C374        C827   1.416       .  A
C375        C376   1.394       .  A
C375        H382   1.084       .  S
C376        S378   1.804       .  S
S377        H380   1.404       .  S
S378        H379   1.406       .  S
C383        C384   1.411       .  A
C383        C388   1.426       .  A
C384        C385   1.418       .  A
C384        H393   1.083       .  S
C385        C386   1.423       .  A
C385        S389   1.803       .  S
C386        C387   1.401       .  A
C387        C388   1.397       .  A
C387        H394   1.082       .  S
C388        S390   1.810       .  S
S389        H392   1.406       .  S
S390        H391   1.407       .  S
C395        C396   1.399       .  A
C395        C400   1.417       .  A
C396        C397   1.398       .  A
C396        H405   1.085       .  S
C397        C398   1.424       .  A
C397        S401   1.802       .  S
C398        C399   1.412       .  A
C399        C400   1.415       .  A
C399        H406   1.083       .  S
C400        S402   1.803       .  S
S401        H404   1.405       .  S
S402        H403   1.405       .  S
C407        C412   1.411       .  A
C407        C862   1.402   1_554  A
C408        C409   1.397       .  A
C408        C861   1.402       .  A
C408        H417   1.084       .  S
C409        C864   1.414       .  A
C409        S413   1.805       .  S
C410        C411   1.403       .  A
C410        C863   1.414   1_554  A
C411        C412   1.393       .  A
C411        H418   1.084       .  S
C412        S414   1.805       .  S
S413        H416   1.406       .  S
S414        H415   1.407       .  S
C419        C420   1.408       .  A
C419        C424   1.419       .  A
C420        C421   1.409       .  A
C420        H429   1.080       .  S
C421        C422   1.413       .  A
C421        S425   1.803       .  S
C422        C423   1.399       .  A
C423        C424   1.401       .  A
C423        H430   1.083       .  S
C424        S426   1.807       .  S
S425        H428   1.406       .  S
S426        H427   1.406       .  S
C431        C432   1.410       .  A
C431        C436   1.418       .  A
C432        C433   1.393       .  A
C432        H441   1.082       .  S
C433        C434   1.411       .  A
C433        S437   1.806       .  S
C434        C435   1.408       .  A
C435        C436   1.409       .  A
C435        H442   1.084       .  S
C436        S438   1.798       .  S
S437        H440   1.407       .  S
S438        H439   1.406       .  S
C443        C444   1.402       .  A
C443        C902   1.411   1_554  A
C444        C445   1.399       .  A
C444        H453   1.083       .  S
C445        C446   1.416       .  A
C445        S449   1.802       .  S
C446        C901   1.405   1_554  A
C447        C448   1.401       .  A
C447        C900   1.405       .  A
C447        H454   1.083       .  S
C448        C897   1.411       .  A
C448        S450   1.799       .  S
S449        H452   1.406       .  S
S450        H451   1.404       .  S
O455        C482   1.275       .  A
O455       Mn481   2.123   1_545  S
C456        O486   1.271       .  A
C456        C897   1.476       .  S
O457       Mn475   2.126       .  S
O457      Mn1387   2.180   1_446  S
O457      Mn1389   2.112   1_545  S
O458      Mn1400   2.081       .  S
O459        C482   1.260       .  A
O459      Mn1383   2.045       .  S
O460        C487   1.250       .  A
O460       Mn479   2.080   1_545  S
O461      Mn1400   1.963       .  S
O461       Mn481   1.945       .  S
O461        C477   1.213       .  S
C462        O465   1.261       .  A
C462        C852   1.508       .  S
C462        O488   1.217       .  S
O463      Mn1391   2.119   1_545  S
O463      Mn1372   2.179   1_545  S
O463       Mn497   2.118       .  S
Mn464       O493   2.133       .  S
Mn464       O469   2.092   1_565  S
Mn464      O1371   2.179   1_565  S
Mn464       O470   2.156       .  S
O466        C468   1.270       .  A
O466       Mn473   2.079       .  S
C467        O493   1.255       .  A
C467        C885   1.498       .  S
C467        O480   1.216       .  S
C468        C861   1.464       .  S
O469        C494   1.250       .  A
O470      Mn1381   2.113       .  S
O470       Mn933   2.151   1_455  S
O471      Mn1405   1.935       .  S
O471        C494   1.218       .  S
C472        O498   1.272       .  A
C472        O474   1.263       .  A
C472        C816   1.465       .  S
Mn473      O1394   2.085       .  S
Mn473      O1378   2.113       .  S
Mn473       O488   1.972       .  S
Mn473      O1388   1.954       .  S
O474       Mn497   2.056       .  S
Mn475      O1367   2.045   1_455  S
Mn475       O491   2.067       .  S
Mn475      O1393   1.947   1_456  S
O476        C478   1.272       .  A
O476      Mn1389   2.102   1_545  S
C477        O495   1.260       .  A
C477        C837   1.511       .  S
C478        O491   1.263       .  A
C478        C768   1.461       .  S
Mn479       O495   2.162   1_554  S
Mn479      O1365   2.180   1_564  S
Mn479       O924   2.151       .  S
O480      Mn1381   1.954       .  S
O480       Mn483   1.948       .  S
Mn481      O1384   2.102   1_565  S
Mn481      O1365   2.112   1_565  S
Mn481      O1407   1.971       .  S
C482        C801   1.479       .  S
Mn483       O490   2.121   1_565  S
Mn483      O1406   2.108   1_465  S
Mn483      O1371   2.119   1_565  S
Mn483      O1396   1.960   1_455  S
C484        O490   1.276       .  A
C484        O500   1.260       .  A
C484        C780   1.489       .  S
O485      Mn1383   1.947   1_554  S
O485        C487   1.222       .  S
O486      Mn1381   2.085       .  S
C487        C828   1.476       .  S
O488      Mn1391   1.960       .  S
O489       Mn492   2.101       .  S
Mn492      O1366   2.081   1_455  S
Mn492      O1369   1.963   1_455  S
Mn492       O499   1.970       .  S
C494        C789   1.477       .  S
O496        C501   1.257       .  A
Mn497      O1408   2.053       .  S
Mn497      O1379   1.935       .  S
O498      Mn1391   2.108   1_545  S
O499      Mn1389   1.971       .  S
O499        C501   1.217       .  S
O500      Mn1405   2.053       .  S
C501        C873   1.498       .  S
C502        C792   1.470       .  S
C502        C503   1.411   1_554  A
C503        C504   1.404       .  A
C503        H508   1.083       .  S
C504        C753   1.484       .  S
C504        C505   1.396   1_556  A
C505        H509   1.085       .  S
C506        C744   1.469       .  S
C506        C507   1.395       .  A
C507        H510   1.084       .  S
C511        C825   1.467       .  S
C511        C512   1.409   1_554  A
C512        C513   1.401       .  A
C512        H517   1.084       .  S
C513        C729   1.464       .  S
C513        C514   1.389   1_556  A
C514        H518   1.087       .  S
C515        C720   1.461       .  S
C515        C516   1.395       .  A
C516        H519   1.084       .  S
C520        C864   1.474       .  S
C520        C521   1.403       .  A
C520        C525   1.402       .  A
C521        C522   1.401       .  A
C522        C523   1.413       .  A
C523        C524   1.415       .  A
C523        H527   1.084       .  S
C524        C696   1.498       .  S
C524        C525   1.399       .  A
C525        H528   1.083       .  S
C529        C900   1.486       .  S
C529        C534   1.409       .  A
C530        C531   1.400       .  A
C530        H535   1.084       .  S
C531        C684   1.488       .  S
C532        C533   1.411       .  A
C532        H536   1.084       .  S
C533        C672   1.492       .  S
C533        C534   1.404       .  A
C534        H537   1.084       .  S
O538        C565   1.258       .  A
O538       Mn564   2.042       .  S
C539        O572   1.259       .  A
C539        O569   1.277       .  A
C539        C732   1.464       .  S
O540       Mn547   2.187       .  S
O540       Mn558   2.105       .  S
O540       Mn562   2.174       .  S
O540       Mn564   2.121       .  S
O541        C551   1.264       .  A
O541       Mn575   2.069       .  S
O542        C565   1.277       .  A
O542       Mn558   2.118       .  S
O543        C570   1.256       .  A
O543       Mn562   2.135       .  S
O544       Mn575   1.928       .  S
O544       Mn564   1.929       .  S
O544        C560   1.215       .  S
C545        O548   1.255       .  A
C545        C681   1.497       .  S
C545        O571   1.218       .  S
O546       Mn566   2.107       .  S
O546       Mn547   2.174       .  S
O546       Mn580   2.113       .  S
O546       Mn562   2.163       .  S
Mn547       O576   2.162       .  S
Mn547       O552   2.168       .  S
Mn547       O579   2.119       .  S
Mn547       O553   2.186       .  S
O548       Mn562   2.126       .  S
O549        C551   1.268       .  A
O549       Mn556   2.087       .  S
C550        O576   1.260       .  A
C550        C705   1.503       .  S
C550        O563   1.207       .  S
C551        C756   1.486       .  S
O552        C577   1.261       .  A
O553       Mn556   2.109       .  S
O553       Mn575   2.119       .  S
O553       Mn562   2.176       .  S
O554       Mn558   1.953       .  S
O554       Mn580   1.940       .  S
O554        C577   1.206       .  S
C555        O581   1.276       .  A
C555        O557   1.272       .  A
C555        C624   1.478       .  S
Mn556       O569   2.129       .  S
Mn556       O571   1.965       .  S
Mn556       O563   1.936       .  S
O557       Mn580   2.089       .  S
Mn558       O574   2.137       .  S
Mn558       O568   1.973       .  S
O559        C561   1.258       .  A
O559       Mn564   2.042       .  S
C560        O578   1.252       .  A
C560        C645   1.487       .  S
C561        O574   1.279       .  A
C561        C717   1.481       .  S
Mn562       O578   2.108       .  S
O563       Mn566   1.955       .  S
Mn564       O582   1.938       .  S
C565        C741   1.481       .  S
Mn566       O573   2.097       .  S
Mn566       O581   2.107       .  S
Mn566       O571   1.967       .  S
C567        O573   1.272       .  A
C567        O583   1.274       .  A
C567        C633   1.483       .  S
O568       Mn580   1.972       .  S
O568        C570   1.219       .  S
C570        C669   1.499       .  S
O572       Mn575   2.035       .  S
Mn575       O582   1.946       .  S
C577        C693   1.503       .  S
O579        C584   1.260       .  A
Mn580       O583   2.103       .  S
O582        C584   1.219       .  S
C584        C657   1.490       .  S
C585        C648   1.474       .  S
C585        C586   1.409       .  A
C585        C590   1.407       .  A
C586        C587   1.407       .  A
C586        H591   1.084       .  S
C587        C777   1.477       .  S
C587        C588   1.394       .  A
C588        C589   1.391       .  A
C588        H592   1.085       .  S
C589        C765   1.469       .  S
C589        C590   1.399       .  A
C590        H593   1.084       .  S
C594        C636   1.496       .  S
C594        C595   1.411       .  A
C594        C599   1.414       .  A
C595        C596   1.403       .  A
C595        H600   1.084       .  S
C596        C849   1.497       .  S
C596        C597   1.406       .  A
C597        C598   1.415       .  A
C597        H601   1.084       .  S
C598        C840   1.511       .  S
C598        C599   1.410       .  A
C599        H602   1.081       .  S
C603        C621   1.483       .  S
C603        C604   1.405       .  A
C603        C608   1.408       .  A
C604        C605   1.401       .  A
C604        H609   1.084       .  S
C605        C888   1.490       .  S
C605        C606   1.409       .  A
C606        C607   1.406       .  A
C606        H610   1.084       .  S
C607        C876   1.486       .  S
C607        C608   1.402       .  A
C608        H611   1.084       .  S
C612        C660   1.476       .  S
C612        C613   1.407       .  A
C612        C617   1.408       .  A
C613        C614   1.399       .  A
C613        H618   1.084       .  S
C614        C813   1.466       .  S
C614        C615   1.390       .  A
C615        C616   1.394       .  A
C615        H619   1.086       .  S
C616        C804   1.473       .  S
C616        C617   1.405       .  A
C617        H620   1.084       .  S
C621        C622   1.404       .  A
C621        C626   1.414       .  A
C622        C623   1.397       .  A
C622        H631   1.085       .  S
C623        C624   1.411       .  A
C623        S627   1.795       .  S
C624        C625   1.404       .  A
C625        C626   1.400       .  A
C625        H632   1.084       .  S
C626        S628   1.803       .  S
S627        H630   1.406       .  S
S628        H629   1.406       .  S
C633        C634   1.404       .  A
C633        C638   1.413       .  A
C634        C635   1.404       .  A
C634        H643   1.084       .  S
C635        C636   1.419       .  A
C635        S639   1.804       .  S
C636        C637   1.407       .  A
C637        C638   1.402       .  A
C637        H644   1.083       .  S
C638        S640   1.804       .  S
S639        H642   1.407       .  S
S640        H641   1.406       .  S
C645        C646   1.407       .  A
C645        C650   1.422       .  A
C646        C647   1.402       .  A
C646        H655   1.083       .  S
C647        C648   1.412       .  A
C647        S651   1.804       .  S
C648        C649   1.397       .  A
C649        C650   1.400       .  A
C649        H656   1.082       .  S
C650        S652   1.811       .  S
S651        H654   1.404       .  S
S652        H653   1.406       .  S
C657        C658   1.407       .  A
C657        C662   1.423       .  A
C658        C659   1.404       .  A
C658        H667   1.081       .  S
C659        C660   1.411       .  A
C659        S663   1.804       .  S
C660        C661   1.396       .  A
C661        C662   1.398       .  A
C661        H668   1.083       .  S
C662        S664   1.811       .  S
S663        H666   1.405       .  S
S664        H665   1.406       .  S
C669        C670   1.406       .  A
C669        C674   1.420       .  A
C670        C671   1.394       .  A
C670        H679   1.081       .  S
C671        C672   1.410       .  A
C671        S675   1.801       .  S
C672        C673   1.409       .  A
C673        C674   1.414       .  A
C673        H680   1.084       .  S
C674        S676   1.801       .  S
S675        H678   1.403       .  S
S676        H677   1.405       .  S
C681        C682   1.408       .  A
C681        C686   1.419       .  A
C682        C683   1.400       .  A
C682        H691   1.082       .  S
C683        C684   1.407       .  A
C683        S687   1.805       .  S
C684        C685   1.407       .  A
C685        C686   1.411       .  A
C685        H692   1.084       .  S
C686        S688   1.799       .  S
S688        H689   1.407       .  S
C693        C694   1.409       .  A
C693        C698   1.425       .  A
C694        C695   1.415       .  A
C694        H703   1.084       .  S
C695        C696   1.423       .  A
C695        S699   1.803       .  S
C696        C697   1.397       .  A
C697        C698   1.391       .  A
C697        H704   1.084       .  S
C698        S700   1.801       .  S
S699        H702   1.406       .  S
S700        H701   1.408       .  S
C705        C706   1.407       .  A
C705        C710   1.427       .  A
C706        C707   1.412       .  A
C706        H715   1.083       .  S
C707        C708   1.421       .  A
C707        S711   1.803       .  S
C708        C709   1.399       .  A
C709        C710   1.393       .  A
C709        H716   1.084       .  S
C710        S712   1.804       .  S
S711        H714   1.406       .  S
S712        H713   1.408       .  S
C717        C718   1.408       .  A
C717        C722   1.406       .  A
C718        C719   1.396       .  A
C718        H727   1.084       .  S
C719        C720   1.411       .  A
C719        S723   1.805       .  S
C720        C721   1.395       .  A
C721        C722   1.391       .  A
C721        H728   1.085       .  S
C722        S724   1.771       .  S
S723        H726   1.402       .  S
S724        H725   1.406       .  S
C729        C730   1.400       .  A
C729        C734   1.410       .  A
C730        C731   1.401       .  A
C730        H739   1.085       .  S
C731        C732   1.414       .  A
C731        S735   1.795       .  S
C732        C733   1.399       .  A
C733        C734   1.388       .  A
C733        H740   1.085       .  S
C734        S736   1.804       .  S
S735        H738   1.401       .  S
C741        C742   1.402       .  A
C741        C746   1.424       .  A
C742        C743   1.394       .  A
C742        H751   1.081       .  S
C743        C744   1.412       .  A
C743        S747   1.805       .  S
C744        C745   1.396       .  A
C745        C746   1.396       .  A
C745        H752   1.084       .  S
C746        S748   1.802       .  S
S747        H750   1.407       .  S
S748        H749   1.406       .  S
C753        C754   1.407       .  A
C753        C758   1.412       .  A
C754        C755   1.390       .  A
C754        H763   1.085       .  S
C755        C756   1.414       .  A
C755        S759   1.802       .  S
C756        C757   1.412       .  A
C757        C758   1.399       .  A
C757        H764   1.082       .  S
C758        S760   1.801       .  S
S759        H762   1.408       .  S
S760        H761   1.407       .  S
C765        C766   1.399       .  A
C765        C770   1.415       .  A
C766        C767   1.400       .  A
C766        H775   1.085       .  S
C767        C768   1.416       .  A
C767        S771   1.800       .  S
C768        C769   1.396       .  A
C769        C770   1.390       .  A
C769        H776   1.085       .  S
C770        S772   1.806       .  S
S771        H774   1.399       .  S
S772        H773   1.405       .  S
C777        C778   1.398       .  A
C777        C782   1.413       .  A
C778        C779   1.394       .  A
C778        H787   1.084       .  S
C779        C780   1.423       .  A
C779        S783   1.802       .  S
C780        C781   1.406       .  A
C781        C782   1.401       .  A
C781        H788   1.081       .  S
C782        S784   1.804       .  S
S783        H786   1.405       .  S
S784        H785   1.407       .  S
C789        C794   1.415       .  A
C790        C791   1.394       .  A
C790        H799   1.084       .  S
C791        C792   1.407   1_556  A
C791        S795   1.803       .  S
C793        C794   1.397       .  A
C793        H800   1.085       .  S
C794        S796   1.801       .  S
S795        H798   1.406       .  S
S796        H797   1.402       .  S
C801        C802   1.403       .  A
C801        C806   1.420       .  A
C802        C803   1.399       .  A
C802        H811   1.082       .  S
C803        C804   1.413       .  A
C803        S807   1.803       .  S
C804        C805   1.399       .  A
C805        C806   1.398       .  A
C805        H812   1.083       .  S
C806        S808   1.811       .  S
S807        H810   1.407       .  S
S808        H809   1.407       .  S
C813        C814   1.400       .  A
C813        C818   1.409       .  A
C814        C815   1.393       .  A
C814        H823   1.084       .  S
C815        C816   1.412       .  A
C815        S819   1.806       .  S
C816        C817   1.403       .  A
C817        C818   1.401       .  A
C817        H824   1.082       .  S
C818        S820   1.800       .  S
S819        H822   1.407       .  S
S820        H821   1.407       .  S
C825        C830   1.407   1_554  A
C826        C827   1.396       .  A
C826        H835   1.085       .  S
C827        S831   1.803       .  S
C828        C829   1.407   1_554  A
C829        C830   1.394       .  A
C829        H836   1.084       .  S
C830        S832   1.804       .  S
S831        H834   1.404       .  S
S832        H833   1.406       .  S
C837        C838   1.411       .  A
C837        C842   1.426       .  A
C838        C839   1.418       .  A
C838        H847   1.083       .  S
C839        C840   1.423       .  A
C839        S843   1.803       .  S
C840        C841   1.401       .  A
C841        C842   1.397       .  A
C841        H848   1.082       .  S
C842        S844   1.810       .  S
S843        H846   1.406       .  S
S844        H845   1.407       .  S
C849        C850   1.399       .  A
C849        C854   1.417       .  A
C850        C851   1.398       .  A
C850        H859   1.085       .  S
C851        C852   1.424       .  A
C851        S855   1.802       .  S
C852        C853   1.412       .  A
C853        C854   1.415       .  A
C853        H860   1.083       .  S
C854        S856   1.803       .  S
S855        H858   1.405       .  S
S856        H857   1.405       .  S
C861        C866   1.411       .  A
C862        C863   1.397       .  A
C862        H871   1.084       .  S
C863        S867   1.805       .  S
C864        C865   1.403       .  A
C865        C866   1.393       .  A
C865        H872   1.084       .  S
C866        S868   1.805       .  S
S867        H870   1.406       .  S
S868        H869   1.407       .  S
C873        C874   1.408       .  A
C873        C878   1.419       .  A
C874        C875   1.409       .  A
C874        H883   1.080       .  S
C875        C876   1.413       .  A
C875        S879   1.803       .  S
C876        C877   1.399       .  A
C877        C878   1.401       .  A
C877        H884   1.083       .  S
C878        S880   1.807       .  S
S879        H882   1.406       .  S
S880        H881   1.406       .  S
C885        C886   1.410       .  A
C885        C890   1.418       .  A
C886        C887   1.393       .  A
C886        H895   1.082       .  S
C887        C888   1.411       .  A
C887        S891   1.806       .  S
C888        C889   1.408       .  A
C889        C890   1.409       .  A
C889        H896   1.084       .  S
C890        S892   1.798       .  S
S891        H894   1.407       .  S
S892        H893   1.406       .  S
C897        C898   1.402       .  A
C898        C899   1.399       .  A
C898        H907   1.083       .  S
C899        C900   1.416       .  A
C899        S903   1.802       .  S
C901        C902   1.401       .  A
C901        H908   1.083       .  S
C902        S904   1.799       .  S
S903        H906   1.406       .  S
S904        H905   1.404       .  S
O909        C936   1.275       .  A
O909       Mn935   2.123   1_645  S
C910       O1397   1.273   1_554  A
C910        O940   1.271       .  A
C910       C1351   1.476       .  S
O911      Mn1372   2.173   1_545  S
O911       Mn929   2.126       .  S
O912       C1376   1.270       .  A
O913        C936   1.260       .  A
O914        C941   1.250       .  A
O914       Mn933   2.080   1_545  S
O915       Mn935   1.945   1_655  S
O915        C931   1.213       .  S
C916        O919   1.261       .  A
C916       C1306   1.508       .  S
C916        O942   1.217       .  S
O917       Mn951   2.118       .  S
O917      Mn1387   2.185   1_445  S
Mn918       O947   2.133       .  S
Mn918       O923   2.092   1_565  S
Mn918      O1404   2.133   1_554  S
Mn918      O1365   2.173   1_564  S
Mn918       O924   2.156       .  S
O919      Mn1387   2.146       .  S
O920        C922   1.270       .  A
O920       Mn927   2.079   1_655  S
C921        O947   1.255       .  A
C921       C1339   1.498       .  S
C921        O934   1.216       .  S
C922       O1366   1.270   1_554  A
C922       C1315   1.464       .  S
O923        C948   1.250       .  A
O924      Mn1400   2.117   1_554  S
O925      Mn1383   1.928   1_554  S
O925        C948   1.218       .  S
C926        O952   1.272       .  A
C926        O928   1.263       .  A
C926       C1270   1.465       .  S
Mn927       O942   1.972   1_455  S
O928       Mn951   2.056   1_655  S
Mn929       O945   2.067       .  S
Mn929      O1379   1.928       .  S
O930        C932   1.272       .  A
C931        O949   1.260       .  A
C931       C1291   1.511       .  S
C932        O945   1.263       .  A
C932       C1222   1.461       .  S
Mn933      O1373   2.146       .  S
Mn933       O949   2.162       .  S
Mn933      O1371   2.185   1_665  S
O934       Mn937   1.948       .  S
C936       C1255   1.479       .  S
Mn937       O944   2.121   1_565  S
C938        O944   1.276       .  A
C938        O954   1.260       .  A
C938       C1234   1.489       .  S
O939      Mn1405   1.946   1_655  S
O939        C941   1.222       .  S
C941       C1282   1.476       .  S
O943       C1364   1.273       .  A
O943       Mn946   2.101       .  S
Mn946      O1378   2.117       .  S
Mn946       O953   1.970       .  S
C948       C1243   1.477       .  S
O950        C955   1.257       .  A
O950      Mn1372   2.133       .  S
Mn951      O1393   1.946   1_455  S
O953        C955   1.217       .  S
C955       C1327   1.498       .  S
C956       C1246   1.470       .  S
C956        C957   1.411       .  A
C956       C1415   1.408       .  A
C957        C958   1.404       .  A
C957        H962   1.083       .  S
C958       C1207   1.484       .  S
C958        C959   1.396       .  A
C959       C1414   1.386       .  A
C959        H963   1.085       .  S
C960       C1198   1.469       .  S
C960       C1413   1.386       .  A
C960        C961   1.395       .  A
C961       C1410   1.408       .  A
C961        H964   1.084       .  S
C965       C1279   1.467       .  S
C965        C966   1.409       .  A
C965       C1424   1.406       .  A
C966        C967   1.401       .  A
C966        H971   1.084       .  S
C967       C1183   1.464       .  S
C967        C968   1.389       .  A
C968       C1423   1.388       .  A
C968        H972   1.087       .  S
C969       C1174   1.461       .  S
C969       C1422   1.388       .  A
C969        C970   1.395       .  A
C970       C1419   1.406       .  A
C970        H973   1.084       .  S
C974       C1318   1.474       .  S
C974        C975   1.403   1_554  A
C974        C979   1.402       .  A
C975        C976   1.401       .  A
C975       H1434   1.082       .  S
C976       C1616   1.498       .  S
C976        C977   1.413   1_556  A
C977        C978   1.415       .  A
C977        H981   1.084       .  S
C978       C1150   1.498       .  S
C978        C979   1.399       .  A
C979        H982   1.083       .  S
H980       C1429   1.082       .  S
C983       C1354   1.486       .  S
C983       C1438   1.406   1_554  A
C983        C988   1.409       .  A
C984       C1437   1.406       .  A
C984        C985   1.400       .  A
C984        H989   1.084       .  S
C985       C1138   1.488       .  S
C985       C1440   1.410       .  A
C986       C1439   1.410   1_554  A
C986        C987   1.411       .  A
C986        H990   1.084       .  S
C987       C1126   1.492       .  S
C987        C988   1.404       .  A
C988        H991   1.084       .  S
O992       C1019   1.258       .  A
O992      Mn1018   2.042       .  S
C993       O1026   1.259       .  A
C993       O1023   1.277       .  A
C993       C1186   1.464       .  S
O994      Mn1001   2.187       .  S
O994      Mn1012   2.105       .  S
O994      Mn1016   2.174       .  S
O994      Mn1018   2.121       .  S
O995       C1005   1.264       .  A
O995      Mn1029   2.069       .  S
O996       C1019   1.277       .  A
O996      Mn1012   2.118       .  S
O997       C1024   1.256       .  A
O997      Mn1016   2.135       .  S
O998      Mn1029   1.928       .  S
O998      Mn1018   1.929       .  S
O998       C1014   1.215       .  S
C999       O1002   1.255       .  A
C999       C1135   1.497       .  S
C999       O1025   1.218       .  S
O1000     Mn1020   2.107       .  S
O1000     Mn1001   2.174       .  S
O1000     Mn1034   2.113       .  S
O1000     Mn1016   2.163       .  S
Mn1001     O1030   2.162       .  S
Mn1001     O1006   2.168       .  S
Mn1001     O1033   2.119       .  S
Mn1001     O1007   2.186       .  S
O1002     Mn1016   2.126       .  S
O1003      C1005   1.268       .  A
O1003     Mn1010   2.087       .  S
C1004      O1030   1.260       .  A
C1004      C1159   1.503       .  S
C1004      O1017   1.207       .  S
C1005      C1210   1.486       .  S
O1006      C1031   1.261       .  A
O1007     Mn1010   2.109       .  S
O1007     Mn1029   2.119       .  S
O1007     Mn1016   2.176       .  S
O1008     Mn1012   1.953       .  S
O1008     Mn1034   1.940       .  S
O1008      C1031   1.206       .  S
C1009      O1035   1.276       .  A
C1009      O1011   1.272       .  A
C1009      C1078   1.478       .  S
Mn1010     O1023   2.129       .  S
Mn1010     O1025   1.965       .  S
Mn1010     O1017   1.936       .  S
O1011     Mn1034   2.089       .  S
Mn1012     O1028   2.137       .  S
Mn1012     O1022   1.973       .  S
O1013      C1015   1.258       .  A
O1013     Mn1018   2.042       .  S
C1014      O1032   1.252       .  A
C1014      C1099   1.487       .  S
C1015      O1028   1.279       .  A
C1015      C1171   1.481       .  S
Mn1016     O1032   2.108       .  S
O1017     Mn1020   1.955       .  S
Mn1018     O1036   1.938       .  S
C1019      C1195   1.481       .  S
Mn1020     O1027   2.097       .  S
Mn1020     O1035   2.107       .  S
Mn1020     O1025   1.967       .  S
C1021      O1027   1.272       .  A
C1021      O1037   1.274       .  A
C1021      C1087   1.483       .  S
O1022     Mn1034   1.972       .  S
O1022      C1024   1.219       .  S
C1024      C1123   1.499       .  S
O1026     Mn1029   2.035       .  S
Mn1029     O1036   1.946       .  S
C1031      C1147   1.503       .  S
O1033      C1038   1.260       .  A
Mn1034     O1037   2.103       .  S
O1036      C1038   1.219       .  S
C1038      C1111   1.490       .  S
C1039      C1102   1.474       .  S
C1039      C1040   1.409       .  A
C1039      C1044   1.407       .  A
C1040      C1041   1.407       .  A
C1040      H1045   1.084       .  S
C1041      C1231   1.477       .  S
C1041      C1042   1.394       .  A
C1042      C1043   1.391       .  A
C1042      H1046   1.085       .  S
C1043      C1219   1.469       .  S
C1043      C1044   1.399       .  A
C1044      H1047   1.084       .  S
C1048      C1090   1.496       .  S
C1048      C1049   1.411       .  A
C1048      C1053   1.414       .  A
C1049      C1050   1.403       .  A
C1049      H1054   1.084       .  S
C1050      C1303   1.497       .  S
C1050      C1051   1.406       .  A
C1051      C1052   1.415       .  A
C1051      H1055   1.084       .  S
C1052      C1294   1.511       .  S
C1052      C1053   1.410       .  A
C1053      H1056   1.081       .  S
C1057      C1075   1.483       .  S
C1057      C1058   1.405       .  A
C1057      C1062   1.408       .  A
C1058      C1059   1.401       .  A
C1058      H1063   1.084       .  S
C1059      C1342   1.490       .  S
C1059      C1060   1.409       .  A
C1060      C1061   1.406       .  A
C1060      H1064   1.084       .  S
C1061      C1330   1.486       .  S
C1061      C1062   1.402       .  A
C1062      H1065   1.084       .  S
C1066      C1114   1.476       .  S
C1066      C1067   1.407       .  A
C1066      C1071   1.408       .  A
C1067      C1068   1.399       .  A
C1067      H1072   1.084       .  S
C1068      C1267   1.466       .  S
C1068      C1069   1.390       .  A
C1069      C1070   1.394       .  A
C1069      H1073   1.086       .  S
C1070      C1258   1.473       .  S
C1070      C1071   1.405       .  A
C1071      H1074   1.084       .  S
C1075      C1076   1.404       .  A
C1075      C1080   1.414       .  A
C1076      C1077   1.397       .  A
C1076      H1085   1.085       .  S
C1077      C1078   1.411       .  A
C1077      S1081   1.795       .  S
C1078      C1079   1.404       .  A
C1079      C1080   1.400       .  A
C1079      H1086   1.084       .  S
C1080      S1082   1.803       .  S
S1081      H1084   1.406       .  S
S1082      H1083   1.406       .  S
C1087      C1088   1.404       .  A
C1087      C1092   1.413       .  A
C1088      C1089   1.404       .  A
C1088      H1097   1.084       .  S
C1089      C1090   1.419       .  A
C1089      S1093   1.804       .  S
C1090      C1091   1.407       .  A
C1091      C1092   1.402       .  A
C1091      H1098   1.083       .  S
C1092      S1094   1.804       .  S
S1093      H1096   1.407       .  S
S1094      H1095   1.406       .  S
C1099      C1100   1.407       .  A
C1099      C1104   1.422       .  A
C1100      C1101   1.402       .  A
C1100      H1109   1.083       .  S
C1101      C1102   1.412       .  A
C1101      S1105   1.804       .  S
C1102      C1103   1.397       .  A
C1103      C1104   1.400       .  A
C1103      H1110   1.082       .  S
C1104      S1106   1.811       .  S
S1105      H1108   1.404       .  S
S1106      H1107   1.406       .  S
C1111      C1112   1.407       .  A
C1111      C1116   1.423       .  A
C1112      C1113   1.404       .  A
C1112      H1121   1.081       .  S
C1113      C1114   1.411       .  A
C1113      S1117   1.804       .  S
C1114      C1115   1.396       .  A
C1115      C1116   1.398       .  A
C1115      H1122   1.083       .  S
C1116      S1118   1.811       .  S
S1117      H1120   1.405       .  S
S1118      H1119   1.406       .  S
C1123      C1124   1.406       .  A
C1123      C1128   1.420       .  A
C1124      C1125   1.394       .  A
C1124      H1133   1.081       .  S
C1125      C1126   1.410       .  A
C1125      S1129   1.801       .  S
C1126      C1127   1.409       .  A
C1127      C1128   1.414       .  A
C1127      H1134   1.084       .  S
C1128      S1130   1.801       .  S
S1129      H1132   1.403       .  S
S1130      H1131   1.405       .  S
C1135      C1136   1.408       .  A
C1135      C1140   1.419       .  A
C1136      C1137   1.400       .  A
C1136      H1145   1.082       .  S
C1137      C1138   1.407       .  A
C1137      S1141   1.805       .  S
C1138      C1139   1.407       .  A
C1139      C1140   1.411       .  A
C1139      H1146   1.084       .  S
C1140      S1142   1.799       .  S
S1141      H1598   1.406       .  S
S1142      H1143   1.407       .  S
H1144      S1595   1.406       .  S
C1147      C1148   1.409       .  A
C1147      C1152   1.425       .  A
C1148      C1149   1.415       .  A
C1148      H1157   1.084       .  S
C1149      C1150   1.423       .  A
C1149      S1153   1.803       .  S
C1150      C1151   1.397       .  A
C1151      C1152   1.391       .  A
C1151      H1158   1.084       .  S
C1152      S1154   1.801       .  S
S1153      H1156   1.406       .  S
S1154      H1155   1.408       .  S
C1159      C1160   1.407       .  A
C1159      C1164   1.427       .  A
C1160      C1161   1.412       .  A
C1160      H1169   1.083       .  S
C1161      C1162   1.421       .  A
C1161      S1165   1.803       .  S
C1162      C1430   1.498       .  S
C1162      C1163   1.399       .  A
C1163      C1164   1.393       .  A
C1163      H1170   1.084       .  S
C1164      S1166   1.804       .  S
S1165      H1168   1.406       .  S
S1166      H1167   1.408       .  S
C1171      C1172   1.408       .  A
C1171      C1176   1.406       .  A
C1172      C1173   1.396       .  A
C1172      H1181   1.084       .  S
C1173      C1174   1.411       .  A
C1173      S1177   1.805       .  S
C1174      C1175   1.395       .  A
C1175      C1176   1.391       .  A
C1175      H1182   1.085       .  S
C1176      S1178   1.771       .  S
S1177      H1180   1.402       .  S
S1178      H1179   1.406       .  S
C1183      C1184   1.400       .  A
C1183      C1188   1.410       .  A
C1184      C1185   1.401       .  A
C1184      H1193   1.085       .  S
C1185      C1186   1.414       .  A
C1185      S1189   1.795       .  S
C1186      C1187   1.399       .  A
C1187      C1188   1.388       .  A
C1187      H1194   1.085       .  S
C1188      S1190   1.804       .  S
S1189      H1192   1.401       .  S
S1190      H1645   1.405       .  S
H1191      S1644   1.405       .  S
C1195      C1196   1.402       .  A
C1195      C1200   1.424       .  A
C1196      C1197   1.394       .  A
C1196      H1205   1.081       .  S
C1197      C1198   1.412       .  A
C1197      S1201   1.805       .  S
C1198      C1199   1.396       .  A
C1199      C1200   1.396       .  A
C1199      H1206   1.084       .  S
C1200      S1202   1.802       .  S
S1201      H1204   1.407       .  S
S1202      H1203   1.406       .  S
C1207      C1208   1.407       .  A
C1207      C1212   1.412       .  A
C1208      C1209   1.390       .  A
C1208      H1217   1.085       .  S
C1209      C1210   1.414       .  A
C1209      S1213   1.802       .  S
C1210      C1211   1.412       .  A
C1211      C1212   1.399       .  A
C1211      H1218   1.082       .  S
C1212      S1214   1.801       .  S
S1213      H1216   1.408       .  S
S1214      H1215   1.407       .  S
C1219      C1220   1.399       .  A
C1219      C1224   1.415       .  A
C1220      C1221   1.400       .  A
C1220      H1229   1.085       .  S
C1221      C1222   1.416       .  A
C1221      S1225   1.800       .  S
C1222      C1223   1.396       .  A
C1223      C1224   1.390       .  A
C1223      H1230   1.085       .  S
C1224      S1226   1.806       .  S
S1225      H1228   1.399       .  S
S1226      H1227   1.405       .  S
C1231      C1232   1.398       .  A
C1231      C1236   1.413       .  A
C1232      C1233   1.394       .  A
C1232      H1241   1.084       .  S
C1233      C1234   1.423       .  A
C1233      S1237   1.802       .  S
C1234      C1235   1.406       .  A
C1235      C1236   1.401       .  A
C1235      H1242   1.081       .  S
C1236      S1238   1.804       .  S
S1237      H1240   1.405       .  S
S1238      H1239   1.407       .  S
C1243      C1698   1.408   1_554  A
C1243      C1248   1.415       .  A
C1244      C1697   1.408       .  A
C1244      C1245   1.394       .  A
C1244      H1253   1.084       .  S
C1245      C1246   1.407       .  A
C1245      S1249   1.803       .  S
C1246      C1701   1.403       .  A
C1247      C1700   1.403       .  A
C1247      C1248   1.397       .  A
C1247      H1254   1.085       .  S
C1248      S1250   1.801       .  S
S1249      H1252   1.406       .  S
S1250      H1251   1.402       .  S
C1255      C1256   1.403       .  A
C1255      C1260   1.420       .  A
C1256      C1257   1.399       .  A
C1256      H1265   1.082       .  S
C1257      C1258   1.413       .  A
C1257      S1261   1.803       .  S
C1258      C1259   1.399       .  A
C1259      C1260   1.398       .  A
C1259      H1266   1.083       .  S
C1260      S1262   1.811       .  S
S1261      H1264   1.407       .  S
S1262      H1263   1.407       .  S
C1267      C1268   1.400       .  A
C1267      C1272   1.409       .  A
C1268      C1269   1.393       .  A
C1268      H1277   1.084       .  S
C1269      C1270   1.412       .  A
C1269      S1273   1.806       .  S
C1270      C1271   1.403       .  A
C1271      C1272   1.401       .  A
C1271      H1278   1.082       .  S
C1272      S1274   1.800       .  S
S1273      H1276   1.407       .  S
S1274      H1275   1.407       .  S
C1279      C1734   1.402       .  A
C1279      C1284   1.407       .  A
C1280      C1733   1.402       .  A
C1280      C1281   1.396       .  A
C1280      H1289   1.085       .  S
C1281      C1736   1.416       .  A
C1281      S1285   1.803       .  S
C1282      C1735   1.416       .  A
C1282      C1283   1.407       .  A
C1283      C1284   1.394       .  A
C1283      H1290   1.084       .  S
C1284      S1286   1.804       .  S
S1285      H1288   1.404       .  S
S1286      H1287   1.406       .  S
C1291      C1292   1.411       .  A
C1291      C1296   1.426       .  A
C1292      C1293   1.418       .  A
C1292      H1301   1.083       .  S
C1293      C1294   1.423       .  A
C1293      S1297   1.803       .  S
C1294      C1295   1.401       .  A
C1295      C1296   1.397       .  A
C1295      H1302   1.082       .  S
C1296      S1298   1.810       .  S
S1297      H1300   1.406       .  S
S1298      H1299   1.407       .  S
C1303      C1304   1.399       .  A
C1303      C1308   1.417       .  A
C1304      C1305   1.398       .  A
C1304      H1313   1.085       .  S
C1305      C1306   1.424       .  A
C1305      S1309   1.802       .  S
C1306      C1307   1.412       .  A
C1307      C1308   1.415       .  A
C1307      H1314   1.083       .  S
C1308      S1310   1.803       .  S
S1309      H1312   1.405       .  S
S1310      H1311   1.405       .  S
C1315      C1770   1.402   1_554  A
C1315      C1320   1.411       .  A
C1316      C1769   1.402       .  A
C1316      C1317   1.397       .  A
C1316      H1325   1.084       .  S
C1317      C1772   1.414       .  A
C1317      S1321   1.805       .  S
C1318      C1771   1.414   1_554  A
C1318      C1319   1.403       .  A
C1319      C1320   1.393       .  A
C1319      H1326   1.084       .  S
C1320      S1322   1.805       .  S
S1321      H1324   1.406       .  S
S1322      H1323   1.407       .  S
C1327      C1328   1.408       .  A
C1327      C1332   1.419       .  A
C1328      C1329   1.409       .  A
C1328      H1337   1.080       .  S
C1329      C1330   1.413       .  A
C1329      S1333   1.803       .  S
C1330      C1331   1.399       .  A
C1331      C1332   1.401       .  A
C1331      H1338   1.083       .  S
C1332      S1334   1.807       .  S
S1333      H1336   1.406       .  S
S1334      H1335   1.406       .  S
C1339      C1340   1.410       .  A
C1339      C1344   1.418       .  A
C1340      C1341   1.393       .  A
C1340      H1349   1.082       .  S
C1341      C1342   1.411       .  A
C1341      S1345   1.806       .  S
C1342      C1343   1.408       .  A
C1343      C1344   1.409       .  A
C1343      H1350   1.084       .  S
C1344      S1346   1.798       .  S
S1345      H1348   1.407       .  S
S1346      H1347   1.406       .  S
C1351      C1352   1.402       .  A
C1351      C1810   1.411   1_554  A
C1352      C1353   1.399       .  A
C1352      H1361   1.083       .  S
C1353      C1354   1.416       .  A
C1353      S1357   1.802       .  S
C1354      C1809   1.405   1_554  A
C1355      C1808   1.405       .  A
C1355      C1356   1.401       .  A
C1355      H1362   1.083       .  S
C1356      C1805   1.411       .  A
C1356      S1358   1.799       .  S
S1357      H1360   1.406       .  S
S1358      H1359   1.404       .  S
O1363      C1390   1.275       .  A
O1363     Mn1389   2.123   1_645  S
C1364      O1394   1.271       .  A
C1364      C1805   1.476       .  S
O1365     Mn1383   2.126       .  S
O1367      C1390   1.260       .  A
O1368      C1395   1.250       .  A
O1368     Mn1387   2.080   1_545  S
O1369     Mn1389   1.945   1_655  S
O1369      C1385   1.213       .  S
C1370      O1373   1.261       .  A
C1370      C1760   1.508       .  S
C1370      O1396   1.217       .  S
O1371     Mn1405   2.118       .  S
Mn1372     O1401   2.133       .  S
Mn1372     O1377   2.092   1_565  S
Mn1372     O1378   2.156       .  S
O1374      C1376   1.270       .  A
O1374     Mn1381   2.079   1_655  S
C1375      O1401   1.255       .  A
C1375      C1793   1.498       .  S
C1375      O1388   1.216       .  S
C1376      C1769   1.464       .  S
O1377      C1402   1.250       .  A
O1379      C1402   1.218       .  S
C1380      O1406   1.272       .  A
C1380      O1382   1.263       .  A
C1380      C1724   1.465       .  S
Mn1381     O1396   1.972   1_455  S
O1382     Mn1405   2.056   1_655  S
Mn1383     O1399   2.067       .  S
O1384      C1386   1.272       .  A
C1385      O1403   1.260       .  A
C1385      C1745   1.511       .  S
C1386      O1399   1.263       .  A
C1386      C1676   1.461       .  S
Mn1387     O1403   2.162   1_554  S
O1388     Mn1391   1.948       .  S
C1390      C1709   1.479       .  S
Mn1391     O1398   2.121   1_565  S
C1392      O1398   1.276       .  A
C1392      O1408   1.260       .  A
C1392      C1688   1.489       .  S
O1393      C1395   1.222       .  S
C1395      C1736   1.476       .  S
O1397     Mn1400   2.101       .  S
Mn1400     O1407   1.970       .  S
C1402      C1697   1.477       .  S
O1404      C1409   1.257       .  A
O1407      C1409   1.217       .  S
C1409      C1781   1.498       .  S
C1410      C1700   1.470       .  S
C1410      C1411   1.411   1_554  A
C1411      C1412   1.404       .  A
C1411      H1416   1.083       .  S
C1412      C1661   1.484       .  S
C1412      C1413   1.396   1_556  A
C1413      H1417   1.085       .  S
C1414      C1652   1.469       .  S
C1414      C1415   1.395       .  A
C1415      H1418   1.084       .  S
C1419      C1733   1.467       .  S
C1419      C1420   1.409   1_554  A
C1420      C1421   1.401       .  A
C1420      H1425   1.084       .  S
C1421      C1637   1.464       .  S
C1421      C1422   1.389   1_556  A
C1422      H1426   1.087       .  S
C1423      C1628   1.461       .  S
C1423      C1424   1.395       .  A
C1424      H1427   1.084       .  S
C1428      C1772   1.474       .  S
C1428      C1429   1.403       .  A
C1428      C1433   1.402       .  A
C1429      C1430   1.401       .  A
C1430      C1431   1.413       .  A
C1431      C1432   1.415       .  A
C1431      H1435   1.084       .  S
C1432      C1604   1.498       .  S
C1432      C1433   1.399       .  A
C1433      H1436   1.083       .  S
C1437      C1808   1.486       .  S
C1437      C1442   1.409       .  A
C1438      C1439   1.400       .  A
C1438      H1443   1.084       .  S
C1439      C1592   1.488       .  S
C1440      C1441   1.411       .  A
C1440      H1444   1.084       .  S
C1441      C1580   1.492       .  S
C1441      C1442   1.404       .  A
C1442      H1445   1.084       .  S
O1446      C1473   1.258       .  A
O1446     Mn1472   2.042       .  S
C1447      O1480   1.259       .  A
C1447      O1477   1.277       .  A
C1447      C1640   1.464       .  S
O1448     Mn1455   2.187       .  S
O1448     Mn1466   2.105       .  S
O1448     Mn1470   2.174       .  S
O1448     Mn1472   2.121       .  S
O1449      C1459   1.264       .  A
O1449     Mn1483   2.069       .  S
O1450      C1473   1.277       .  A
O1450     Mn1466   2.118       .  S
O1451      C1478   1.256       .  A
O1451     Mn1470   2.135       .  S
O1452     Mn1483   1.928       .  S
O1452     Mn1472   1.929       .  S
O1452      C1468   1.215       .  S
C1453      O1456   1.255       .  A
C1453      C1589   1.497       .  S
C1453      O1479   1.218       .  S
O1454     Mn1474   2.107       .  S
O1454     Mn1455   2.174       .  S
O1454     Mn1488   2.113       .  S
O1454     Mn1470   2.163       .  S
Mn1455     O1484   2.162       .  S
Mn1455     O1460   2.168       .  S
Mn1455     O1487   2.119       .  S
Mn1455     O1461   2.186       .  S
O1456     Mn1470   2.126       .  S
O1457      C1459   1.268       .  A
O1457     Mn1464   2.087       .  S
C1458      O1484   1.260       .  A
C1458      C1613   1.503       .  S
C1458      O1471   1.207       .  S
C1459      C1664   1.486       .  S
O1460      C1485   1.261       .  A
O1461     Mn1464   2.109       .  S
O1461     Mn1483   2.119       .  S
O1461     Mn1470   2.176       .  S
O1462     Mn1466   1.953       .  S
O1462     Mn1488   1.940       .  S
O1462      C1485   1.206       .  S
C1463      O1489   1.276       .  A
C1463      O1465   1.272       .  A
C1463      C1532   1.478       .  S
Mn1464     O1477   2.129       .  S
Mn1464     O1479   1.965       .  S
Mn1464     O1471   1.936       .  S
O1465     Mn1488   2.089       .  S
Mn1466     O1482   2.137       .  S
Mn1466     O1476   1.973       .  S
O1467      C1469   1.258       .  A
O1467     Mn1472   2.042       .  S
C1468      O1486   1.252       .  A
C1468      C1553   1.487       .  S
C1469      O1482   1.279       .  A
C1469      C1625   1.481       .  S
Mn1470     O1486   2.108       .  S
O1471     Mn1474   1.955       .  S
Mn1472     O1490   1.938       .  S
C1473      C1649   1.481       .  S
Mn1474     O1481   2.097       .  S
Mn1474     O1489   2.107       .  S
Mn1474     O1479   1.967       .  S
C1475      O1481   1.272       .  A
C1475      O1491   1.274       .  A
C1475      C1541   1.483       .  S
O1476     Mn1488   1.972       .  S
O1476      C1478   1.219       .  S
C1478      C1577   1.499       .  S
O1480     Mn1483   2.035       .  S
Mn1483     O1490   1.946       .  S
C1485      C1601   1.503       .  S
O1487      C1492   1.260       .  A
Mn1488     O1491   2.103       .  S
O1490      C1492   1.219       .  S
C1492      C1565   1.490       .  S
C1493      C1556   1.474       .  S
C1493      C1494   1.409       .  A
C1493      C1498   1.407       .  A
C1494      C1495   1.407       .  A
C1494      H1499   1.084       .  S
C1495      C1685   1.477       .  S
C1495      C1496   1.394       .  A
C1496      C1497   1.391       .  A
C1496      H1500   1.085       .  S
C1497      C1673   1.469       .  S
C1497      C1498   1.399       .  A
C1498      H1501   1.084       .  S
C1502      C1544   1.496       .  S
C1502      C1503   1.411       .  A
C1502      C1507   1.414       .  A
C1503      C1504   1.403       .  A
C1503      H1508   1.084       .  S
C1504      C1757   1.497       .  S
C1504      C1505   1.406       .  A
C1505      C1506   1.415       .  A
C1505      H1509   1.084       .  S
C1506      C1748   1.511       .  S
C1506      C1507   1.410       .  A
C1507      H1510   1.081       .  S
C1511      C1529   1.483       .  S
C1511      C1512   1.405       .  A
C1511      C1516   1.408       .  A
C1512      C1513   1.401       .  A
C1512      H1517   1.084       .  S
C1513      C1796   1.490       .  S
C1513      C1514   1.409       .  A
C1514      C1515   1.406       .  A
C1514      H1518   1.084       .  S
C1515      C1784   1.486       .  S
C1515      C1516   1.402       .  A
C1516      H1519   1.084       .  S
C1520      C1568   1.476       .  S
C1520      C1521   1.407       .  A
C1520      C1525   1.408       .  A
C1521      C1522   1.399       .  A
C1521      H1526   1.084       .  S
C1522      C1721   1.466       .  S
C1522      C1523   1.390       .  A
C1523      C1524   1.394       .  A
C1523      H1527   1.086       .  S
C1524      C1712   1.473       .  S
C1524      C1525   1.405       .  A
C1525      H1528   1.084       .  S
C1529      C1530   1.404       .  A
C1529      C1534   1.414       .  A
C1530      C1531   1.397       .  A
C1530      H1539   1.085       .  S
C1531      C1532   1.411       .  A
C1531      S1535   1.795       .  S
C1532      C1533   1.404       .  A
C1533      C1534   1.400       .  A
C1533      H1540   1.084       .  S
C1534      S1536   1.803       .  S
S1535      H1538   1.406       .  S
S1536      H1537   1.406       .  S
C1541      C1542   1.404       .  A
C1541      C1546   1.413       .  A
C1542      C1543   1.404       .  A
C1542      H1551   1.084       .  S
C1543      C1544   1.419       .  A
C1543      S1547   1.804       .  S
C1544      C1545   1.407       .  A
C1545      C1546   1.402       .  A
C1545      H1552   1.083       .  S
C1546      S1548   1.804       .  S
S1547      H1550   1.407       .  S
S1548      H1549   1.406       .  S
C1553      C1554   1.407       .  A
C1553      C1558   1.422       .  A
C1554      C1555   1.402       .  A
C1554      H1563   1.083       .  S
C1555      C1556   1.412       .  A
C1555      S1559   1.804       .  S
C1556      C1557   1.397       .  A
C1557      C1558   1.400       .  A
C1557      H1564   1.082       .  S
C1558      S1560   1.811       .  S
S1559      H1562   1.404       .  S
S1560      H1561   1.406       .  S
C1565      C1566   1.407       .  A
C1565      C1570   1.423       .  A
C1566      C1567   1.404       .  A
C1566      H1575   1.081       .  S
C1567      C1568   1.411       .  A
C1567      S1571   1.804       .  S
C1568      C1569   1.396       .  A
C1569      C1570   1.398       .  A
C1569      H1576   1.083       .  S
C1570      S1572   1.811       .  S
S1571      H1574   1.405       .  S
S1572      H1573   1.406       .  S
C1577      C1578   1.406       .  A
C1577      C1582   1.420       .  A
C1578      C1579   1.394       .  A
C1578      H1587   1.081       .  S
C1579      C1580   1.410       .  A
C1579      S1583   1.801       .  S
C1580      C1581   1.409       .  A
C1581      C1582   1.414       .  A
C1581      H1588   1.084       .  S
C1582      S1584   1.801       .  S
S1583      H1586   1.403       .  S
S1584      H1585   1.405       .  S
C1589      C1590   1.408       .  A
C1589      C1594   1.419       .  A
C1590      C1591   1.400       .  A
C1590      H1599   1.082       .  S
C1591      C1592   1.407       .  A
C1591      S1595   1.805       .  S
C1592      C1593   1.407       .  A
C1593      C1594   1.411       .  A
C1593      H1600   1.084       .  S
C1594      S1596   1.799       .  S
S1596      H1597   1.407       .  S
C1601      C1602   1.409       .  A
C1601      C1606   1.425       .  A
C1602      C1603   1.415       .  A
C1602      H1611   1.084       .  S
C1603      C1604   1.423       .  A
C1603      S1607   1.803       .  S
C1604      C1605   1.397       .  A
C1605      C1606   1.391       .  A
C1605      H1612   1.084       .  S
C1606      S1608   1.801       .  S
S1607      H1610   1.406       .  S
S1608      H1609   1.408       .  S
C1613      C1614   1.407       .  A
C1613      C1618   1.427       .  A
C1614      C1615   1.412       .  A
C1614      H1623   1.083       .  S
C1615      C1616   1.421       .  A
C1615      S1619   1.803       .  S
C1616      C1617   1.399       .  A
C1617      C1618   1.393       .  A
C1617      H1624   1.084       .  S
C1618      S1620   1.804       .  S
S1619      H1622   1.406       .  S
S1620      H1621   1.408       .  S
C1625      C1626   1.408       .  A
C1625      C1630   1.406       .  A
C1626      C1627   1.396       .  A
C1626      H1635   1.084       .  S
C1627      C1628   1.411       .  A
C1627      S1631   1.805       .  S
C1628      C1629   1.395       .  A
C1629      C1630   1.391       .  A
C1629      H1636   1.085       .  S
C1630      S1632   1.771       .  S
S1631      H1634   1.402       .  S
S1632      H1633   1.406       .  S
C1637      C1638   1.400       .  A
C1637      C1642   1.410       .  A
C1638      C1639   1.401       .  A
C1638      H1647   1.085       .  S
C1639      C1640   1.414       .  A
C1639      S1643   1.795       .  S
C1640      C1641   1.399       .  A
C1641      C1642   1.388       .  A
C1641      H1648   1.085       .  S
C1642      S1644   1.804       .  S
S1643      H1646   1.401       .  S
C1649      C1650   1.402       .  A
C1649      C1654   1.424       .  A
C1650      C1651   1.394       .  A
C1650      H1659   1.081       .  S
C1651      C1652   1.412       .  A
C1651      S1655   1.805       .  S
C1652      C1653   1.396       .  A
C1653      C1654   1.396       .  A
C1653      H1660   1.084       .  S
C1654      S1656   1.802       .  S
S1655      H1658   1.407       .  S
S1656      H1657   1.406       .  S
C1661      C1662   1.407       .  A
C1661      C1666   1.412       .  A
C1662      C1663   1.390       .  A
C1662      H1671   1.085       .  S
C1663      C1664   1.414       .  A
C1663      S1667   1.802       .  S
C1664      C1665   1.412       .  A
C1665      C1666   1.399       .  A
C1665      H1672   1.082       .  S
C1666      S1668   1.801       .  S
S1667      H1670   1.408       .  S
S1668      H1669   1.407       .  S
C1673      C1674   1.399       .  A
C1673      C1678   1.415       .  A
C1674      C1675   1.400       .  A
C1674      H1683   1.085       .  S
C1675      C1676   1.416       .  A
C1675      S1679   1.800       .  S
C1676      C1677   1.396       .  A
C1677      C1678   1.390       .  A
C1677      H1684   1.085       .  S
C1678      S1680   1.806       .  S
S1679      H1682   1.399       .  S
S1680      H1681   1.405       .  S
C1685      C1686   1.398       .  A
C1685      C1690   1.413       .  A
C1686      C1687   1.394       .  A
C1686      H1695   1.084       .  S
C1687      C1688   1.423       .  A
C1687      S1691   1.802       .  S
C1688      C1689   1.406       .  A
C1689      C1690   1.401       .  A
C1689      H1696   1.081       .  S
C1690      S1692   1.804       .  S
S1691      H1694   1.405       .  S
S1692      H1693   1.407       .  S
C1697      C1702   1.415       .  A
C1698      C1699   1.394       .  A
C1698      H1707   1.084       .  S
C1699      C1700   1.407   1_556  A
C1699      S1703   1.803       .  S
C1701      C1702   1.397       .  A
C1701      H1708   1.085       .  S
C1702      S1704   1.801       .  S
S1703      H1706   1.406       .  S
S1704      H1705   1.402       .  S
C1709      C1710   1.403       .  A
C1709      C1714   1.420       .  A
C1710      C1711   1.399       .  A
C1710      H1719   1.082       .  S
C1711      C1712   1.413       .  A
C1711      S1715   1.803       .  S
C1712      C1713   1.399       .  A
C1713      C1714   1.398       .  A
C1713      H1720   1.083       .  S
C1714      S1716   1.811       .  S
S1715      H1718   1.407       .  S
S1716      H1717   1.407       .  S
C1721      C1722   1.400       .  A
C1721      C1726   1.409       .  A
C1722      C1723   1.393       .  A
C1722      H1731   1.084       .  S
C1723      C1724   1.412       .  A
C1723      S1727   1.806       .  S
C1724      C1725   1.403       .  A
C1725      C1726   1.401       .  A
C1725      H1732   1.082       .  S
C1726      S1728   1.800       .  S
S1727      H1730   1.407       .  S
S1728      H1729   1.407       .  S
C1733      C1738   1.407   1_554  A
C1734      C1735   1.396       .  A
C1734      H1743   1.085       .  S
C1735      S1739   1.803       .  S
C1736      C1737   1.407   1_554  A
C1737      C1738   1.394       .  A
C1737      H1744   1.084       .  S
C1738      S1740   1.804       .  S
S1739      H1742   1.404       .  S
S1740      H1741   1.406       .  S
C1745      C1746   1.411       .  A
C1745      C1750   1.426       .  A
C1746      C1747   1.418       .  A
C1746      H1755   1.083       .  S
C1747      C1748   1.423       .  A
C1747      S1751   1.803       .  S
C1748      C1749   1.401       .  A
C1749      C1750   1.397       .  A
C1749      H1756   1.082       .  S
C1750      S1752   1.810       .  S
S1751      H1754   1.406       .  S
S1752      H1753   1.407       .  S
C1757      C1758   1.399       .  A
C1757      C1762   1.417       .  A
C1758      C1759   1.398       .  A
C1758      H1767   1.085       .  S
C1759      C1760   1.424       .  A
C1759      S1763   1.802       .  S
C1760      C1761   1.412       .  A
C1761      C1762   1.415       .  A
C1761      H1768   1.083       .  S
C1762      S1764   1.803       .  S
S1763      H1766   1.405       .  S
S1764      H1765   1.405       .  S
C1769      C1774   1.411       .  A
C1770      C1771   1.397       .  A
C1770      H1779   1.084       .  S
C1771      S1775   1.805       .  S
C1772      C1773   1.403       .  A
C1773      C1774   1.393       .  A
C1773      H1780   1.084       .  S
C1774      S1776   1.805       .  S
S1775      H1778   1.406       .  S
S1776      H1777   1.407       .  S
C1781      C1782   1.408       .  A
C1781      C1786   1.419       .  A
C1782      C1783   1.409       .  A
C1782      H1791   1.080       .  S
C1783      C1784   1.413       .  A
C1783      S1787   1.803       .  S
C1784      C1785   1.399       .  A
C1785      C1786   1.401       .  A
C1785      H1792   1.083       .  S
C1786      S1788   1.807       .  S
S1787      H1790   1.406       .  S
S1788      H1789   1.406       .  S
C1793      C1794   1.410       .  A
C1793      C1798   1.418       .  A
C1794      C1795   1.393       .  A
C1794      H1803   1.082       .  S
C1795      C1796   1.411       .  A
C1795      S1799   1.806       .  S
C1796      C1797   1.408       .  A
C1797      C1798   1.409       .  A
C1797      H1804   1.084       .  S
C1798      S1800   1.798       .  S
S1799      H1802   1.407       .  S
S1800      H1801   1.406       .  S
C1805      C1806   1.402       .  A
C1806      C1807   1.399       .  A
C1806      H1815   1.083       .  S
C1807      C1808   1.416       .  A
C1807      S1811   1.802       .  S
C1809      C1810   1.401       .  A
C1809      H1816   1.083       .  S
C1810      S1812   1.799       .  S
S1811      H1814   1.406       .  S
S1812      H1813   1.404       .  S
