geometry optimzed in LAMMPS
_audit_creation_date              2020-11-30 
_audit_creation_method            'lammps2cif' 
_symmetry_space_group_name_H-M    'P1' 
_symmetry_Int_Tables_number       1 
_symmetry_cell_setting            triclinic 
loop_ 
_symmetry_equiv_pos_as_xyz 
  x,y,z 
_cell_length_a                    47.78744957 
_cell_length_b                    47.781091269162516 
_cell_length_c                    47.7888083684303 
_cell_angle_alpha                 90.00009449093176 
_cell_angle_beta                  90.00197409803758 
_cell_angle_gamma                 89.9988779373107 
loop_ 
_atom_site_label 
_atom_site_type_symbol 
_atom_site_fract_x 
_atom_site_fract_y 
_atom_site_fract_z 
_atom_site_charge 
O1          O  0.52581768  0.09530865  0.46622060    -0.71500
O2          O  0.46886589  0.09161399  0.52866192    -0.72500
O3          O  0.52853877  0.09373196  0.52584165    -0.61100
O4          O  0.46606879  0.09336530  0.46893957    -0.69500
O5          O  0.46775252  0.04690292  0.46778002    -0.69100
O6          O  0.52971849  0.04725776  0.52436196    -0.60300
O7          O  0.47053897  0.04516037  0.52702496    -0.72900
O8          O  0.52699786  0.04882297  0.46526701    -0.71600
Cu9        Cu  0.49723853  0.09520074  0.49746449     1.04600
Cu10       Cu  0.49878106  0.04546319  0.49605915     1.04300
C11         C  0.53536416  0.07245982  0.45610899     0.94700
C12         C  0.46093174  0.06769415  0.53762290     0.93800
C13         C  0.53894352  0.07044683  0.53386406     0.85900
C14         C  0.45719935  0.06998953  0.45946539     0.92200
O15         O  0.20281233  0.35610000  0.52959213    -0.71500
O16         O  0.20524038  0.41413662  0.46797007    -0.72500
O17         O  0.20591604  0.41575003  0.52789254    -0.61100
O18         O  0.20211285  0.35435403  0.46977880    -0.69500
O19         O  0.15569549  0.35684899  0.47040662    -0.69100
O20         O  0.15947355  0.41789337  0.52810247    -0.60300
O21         O  0.15880775  0.41624924  0.46862060    -0.72900
O22         O  0.15639493  0.35858985  0.52990963    -0.71600
Cu23       Cu  0.20568421  0.38501396  0.49876631     1.04600
Cu24       Cu  0.15600479  0.38750186  0.49925068     1.04300
C25         C  0.17917671  0.34835471  0.53941840     0.94700
C26         C  0.18228385  0.42422393  0.45866468     0.93800
C27         C  0.18315558  0.42624566  0.53721007     0.85900
C28         C  0.17824838  0.34595743  0.46110834     0.92200
O29         O  0.52687662  0.67962439  0.52756567    -0.71500
O30         O  0.46569946  0.67915284  0.46900730    -0.72500
O31         O  0.52568937  0.67871822  0.46784316    -0.61100
O32         O  0.46700898  0.67985536  0.52874204    -0.69500
O33         O  0.46735134  0.72634410  0.52790106    -0.69100
O34         O  0.52579303  0.72521725  0.46745965    -0.60300
O35         O  0.46630187  0.72564935  0.46861252    -0.72900
O36         O  0.52678312  0.72611854  0.52674139    -0.71600
Cu37       Cu  0.49631240  0.67765124  0.49828382     1.04600
Cu38       Cu  0.49656734  0.72740868  0.49762800     1.04300
C39         C  0.53635968  0.70307999  0.53625730     0.94700
C40         C  0.45632338  0.70248291  0.45986524     0.93800
C41         C  0.53502473  0.70188138  0.45829215     0.85900
C42         C  0.45802543  0.70335087  0.53781769     0.92200
O43         O  0.84305168  0.35295150  0.47382243    -0.71500
O44         O  0.84001643  0.41684584  0.52805806    -0.72500
O45         O  0.84360553  0.35779061  0.53306203    -0.61100
O46         O  0.83939198  0.41174899  0.46883956    -0.69500
O47         O  0.79295101  0.40925835  0.46931997    -0.69100
O48         O  0.79720646  0.35490587  0.53383827    -0.60300
O49         O  0.79359067  0.41434780  0.52900129    -0.72900
O50         O  0.79663584  0.35005680  0.47423516    -0.71600
Cu51       Cu  0.84310208  0.38496547  0.50093464     1.04600
Cu52       Cu  0.79341785  0.38207253  0.50164004     1.04300
C53         C  0.82040773  0.34158756  0.46540486     0.94700
C54         C  0.81646729  0.42550595  0.53719083     0.93800
C55         C  0.82111687  0.34782964  0.54349165     0.85900
C56         C  0.81563861  0.41870608  0.45881884     0.92200
O57         O  0.52838313  0.42126106  0.21195377    -0.71500
O58         O  0.47128099  0.35823937  0.21408229    -0.72500
O59         O  0.53112294  0.36132828  0.21370289    -0.61100
O60         O  0.46865497  0.41818052  0.21290185    -0.69500
O61         O  0.46839532  0.41691615  0.16641862    -0.69100
O62         O  0.53042703  0.36037905  0.16721824    -0.60300
O63         O  0.47123385  0.35762024  0.16760323    -0.72900
O64         O  0.52755054  0.41964329  0.16550572    -0.71600
Cu65       Cu  0.49987326  0.38978087  0.21487931     1.04600
Cu66       Cu  0.49938349  0.38858420  0.16514397     1.04300
C67         C  0.53674666  0.43030408  0.18817228     0.94700
C68         C  0.46241027  0.34812365  0.19092475     0.93800
C69         C  0.54048199  0.35196100  0.19048515     0.85900
C70         C  0.45891616  0.42654060  0.18946126     0.92200
O71         O  0.52818121  0.41453847  0.79104911    -0.71500
O72         O  0.46981116  0.35333592  0.79127925    -0.72500
O73         O  0.46858714  0.41308171  0.79186566    -0.61100
O74         O  0.52948415  0.35485446  0.79028216    -0.69500
O75         O  0.53006336  0.35453126  0.83679274    -0.69100
O76         O  0.46944879  0.41238482  0.83836786    -0.60300
O77         O  0.47078710  0.35306181  0.83777127    -0.72900
O78         O  0.52864512  0.41381852  0.83754261    -0.71600
Cu79       Cu  0.49897700  0.38394274  0.78944109     1.04600
Cu80       Cu  0.49974748  0.38340523  0.83921623     1.04300
C81         C  0.53745823  0.42375393  0.81437656     0.94700
C82         C  0.46119456  0.34369080  0.81468258     0.93800
C83         C  0.45968559  0.42196698  0.81543855     0.85900
C84         C  0.53930881  0.34566606  0.81336286     0.92200
O85         O  0.96667931  0.54839716  0.02874991    -0.71500
O86         O  0.02496179  0.54762459  0.96843805    -0.72500
O87         O  0.02591161  0.54871678  0.02783816    -0.61100
O88         O  0.96576277  0.54764226  0.96923906    -0.69500
O89         O  0.96553898  0.59414934  0.96849570    -0.69100
O90         O  0.02594672  0.59522953  0.02726254    -0.60300
O91         O  0.02507083  0.59412032  0.96746053    -0.72900
O92         O  0.96631123  0.59489922  0.02840870    -0.71600
Cu93       Cu  0.99581629  0.54649756  0.99861362     1.04600
Cu94       Cu  0.99569364  0.59627248  0.99789941     1.04300
C95         C  0.95748592  0.57161694  0.03819323     0.94700
C96         C  0.03402178  0.57061994  0.95833592     0.93800
C97         C  0.03532937  0.57207944  0.03673894     0.85900
C98         C  0.95644586  0.57070332  0.95947267     0.92200
O99         O  0.70817960  0.85795825  0.02572029    -0.71500
O100        O  0.70705327  0.91863086  0.96686342    -0.72500
O101        O  0.70812984  0.91792450  0.02685682    -0.61100
O102        O  0.70699538  0.85887291  0.96610540    -0.69500
O103        O  0.66051457  0.85916496  0.96712298    -0.69100
O104        O  0.66165525  0.91765338  0.02755631    -0.60300
O105        O  0.66057174  0.91852340  0.96798796    -0.72900
O106        O  0.66168935  0.85807725  0.02637848    -0.71600
Cu107      Cu  0.70925895  0.88840643  0.99638804     1.04600
Cu108      Cu  0.65951864  0.88841246  0.99732259     1.04300
C109        C  0.68502805  0.84833083  0.03498896     0.94700
C110        C  0.68354852  0.92776635  0.95798126     0.93800
C111        C  0.68496232  0.92698037  0.03670421     0.85900
C112        C  0.68347191  0.84970016  0.95728254     0.92200
O113        O  0.02921088  0.21681249  0.02963863    -0.71500
O114        O  0.96962175  0.21651342  0.97093323    -0.72500
O115        O  0.97014946  0.21719517  0.03014022    -0.61100
O116        O  0.02891641  0.21607084  0.97036555    -0.69500
O117        O  0.02889223  0.16957110  0.97064407    -0.69100
O118        O  0.96954757  0.17069839  0.03106272    -0.60300
O119        O  0.96892892  0.17000782  0.97115333    -0.72900
O120        O  0.02924701  0.17030830  0.03054835    -0.71600
Cu121      Cu  0.99947596  0.21819420  0.00021345     1.04600
Cu122      Cu  0.99913501  0.16842224  0.00083164     1.04300
C123        C  0.03849023  0.19378493  0.03943082     0.94700
C124        C  0.95982416  0.19339777  0.96189432     0.93800
C125        C  0.96081399  0.19428694  0.04016915     0.85900
C126        C  0.03820941  0.19278855  0.96116251     0.92200
O127        O  0.34220368  0.85710841  0.97166656    -0.71500
O128        O  0.33874196  0.92006379  0.02737617    -0.72500
O129        O  0.33898075  0.86078068  0.03092834    -0.61100
O130        O  0.34209356  0.91659163  0.96814366    -0.69500
O131        O  0.29568305  0.91641375  0.96543799    -0.69100
O132        O  0.29254126  0.86033057  0.02879025    -0.60300
O133        O  0.29230505  0.92001214  0.02501848    -0.72900
O134        O  0.29578738  0.85662205  0.96915790    -0.71600
Cu135      Cu  0.34209673  0.88865213  0.99960672     1.04600
Cu136      Cu  0.29241657  0.88834127  0.99699149     1.04300
C137        C  0.31957654  0.84690863  0.96175890     0.94700
C138        C  0.31507551  0.92987106  0.03495840     0.93800
C139        C  0.31541165  0.85183229  0.03975006     0.85900
C140        C  0.31944607  0.92529483  0.95696733     0.92200
O141        O  0.02814039  0.91720373  0.70615957    -0.71500
O142        O  0.96950567  0.85615723  0.70630924    -0.72500
O143        O  0.02929615  0.85741842  0.70712070    -0.61100
O144        O  0.96820544  0.91607114  0.70534505    -0.69500
O145        O  0.96907305  0.91507882  0.65887711    -0.69100
O146        O  0.02970513  0.85690687  0.66063428    -0.60300
O147        O  0.97035775  0.85566200  0.65982700    -0.72900
O148        O  0.02847304  0.91621713  0.65967513    -0.71600
Cu149      Cu  0.99874842  0.88676550  0.70792417     1.04600
Cu150      Cu  0.99940974  0.88596873  0.65818317     1.04300
C151        C  0.03756182  0.92608507  0.68275995     0.94700
C152        C  0.96089804  0.84630684  0.68298160     0.93800
C153        C  0.03898730  0.84799818  0.68404312     0.85900
C154        C  0.95909775  0.92468756  0.68171245     0.92200
O155        O  0.02343301  0.91389559  0.28866755    -0.71500
O156        O  0.96551659  0.85212348  0.28784112    -0.72500
O157        O  0.96371020  0.91187829  0.28809521    -0.61100
O158        O  0.02527748  0.85419074  0.28833549    -0.69500
O159        O  0.02454298  0.85420313  0.33485000    -0.69100
O160        O  0.96366138  0.91144744  0.33461207    -0.60300
O161        O  0.96537235  0.85227964  0.33434144    -0.72900
O162        O  0.02282470  0.91334982  0.33516029    -0.71600
Cu163      Cu  0.99449033  0.88302594  0.28652335     1.04600
Cu164      Cu  0.99407721  0.88280448  0.33630710     1.04300
C165        C  0.03218031  0.92319426  0.31217436     0.94700
C166        C  0.95641066  0.84261521  0.31112528     0.93800
C167        C  0.95415748  0.92068251  0.31145243     0.85900
C168        C  0.03451002  0.84526020  0.31177340     0.92200
N169        N  0.62859819  0.74164748  0.61648459    -0.25900
N170        N  0.63080425  0.71585878  0.62625572    -0.33700
C171        C  0.61240963  0.69936904  0.61255585     0.02500
C172        C  0.59815257  0.71579900  0.59340826     0.08500
C173        C  0.60888504  0.74239115  0.59645431    -0.04600
H174        H  0.60970806  0.67719070  0.61620498     0.09200
H175        H  0.60295835  0.76089951  0.58488922     0.10400
Cu176      Cu  0.65942458  0.70549569  0.65759024     0.44200
Cu177      Cu  0.65303155  0.77456995  0.63008544     0.42000
Cu178      Cu  0.70747964  0.76159023  0.68054457     0.43900
N179        N  0.69048871  0.70110351  0.68803571    -0.33300
N180        N  0.70809093  0.72103151  0.69588602    -0.27500
C181        C  0.72633077  0.71043493  0.71458911    -0.03600
C182        C  0.71969102  0.68265172  0.71887956     0.08600
C183        C  0.69698122  0.67741738  0.70175400     0.02400
H184        H  0.74350033  0.72192712  0.72382729     0.10000
H185        H  0.68664800  0.65754022  0.69867647     0.09100
N186        N  0.70068439  0.80033685  0.66233764    -0.34700
N187        N  0.68052035  0.80486909  0.64393945    -0.26900
C188        C  0.68066180  0.83197287  0.63655454    -0.02100
C189        C  0.70193731  0.84502072  0.65095222     0.06500
C190        C  0.71424385  0.82456433  0.66722755     0.04600
H191        H  0.66594444  0.84153719  0.62229765     0.09700
H192        H  0.73119413  0.82716102  0.68195689     0.08500
N193        N  0.63687429  0.03379362  0.60773643    -0.25900
N194        N  0.63796353  0.05919766  0.61862414    -0.33700
C195        C  0.61827550  0.07526494  0.60635325     0.02500
C196        C  0.60429932  0.05896880  0.58694836     0.08500
C197        C  0.61653235  0.03288002  0.58835046    -0.04600
H198        H  0.61421596  0.09693630  0.61147479     0.09200
H199        H  0.61086902  0.01449938  0.57646217     0.10400
Cu200      Cu  0.66567747  0.06938067  0.65053975     0.44200
Cu201      Cu  0.66234858  0.00125382  0.62051052     0.42000
Cu202      Cu  0.70946078  0.01237392  0.67851059     0.43900
N203        N  0.69411479  0.07348418  0.68320320    -0.33300
N204        N  0.70995291  0.05307970  0.69324805    -0.27500
C205        C  0.72680710  0.06348664  0.71326700    -0.03600
C206        C  0.72109231  0.09164838  0.71598768     0.08600
C207        C  0.70039208  0.09733469  0.69667810     0.02400
H208        H  0.74266581  0.05165587  0.72429047     0.10000
H209        H  0.69133971  0.11753209  0.69202076     0.09100
N210        N  0.70466786  0.97418003  0.65871105    -0.34700
N211        N  0.68763321  0.97039805  0.63723433    -0.26900
C212        C  0.68783830  0.94324869  0.62999296    -0.02100
C213        C  0.70587307  0.92940072  0.64771568     0.06500
C214        C  0.71615930  0.94944427  0.66578852     0.04600
H215        H  0.67473158  0.93409133  0.61400312     0.09700
H216        H  0.72985366  0.94615335  0.68347076     0.08500
N217        N  0.85244022  0.50588830  0.62931108    -0.25900
N218        N  0.82712811  0.51700275  0.63011616    -0.33700
C219        C  0.81094607  0.50419341  0.61084307     0.02500
C220        C  0.82710967  0.48423042  0.59745736     0.08500
C221        C  0.85319371  0.48583932  0.60963119    -0.04600
H222        H  0.78917976  0.50902282  0.60694732     0.09200
H223        H  0.87140038  0.47342330  0.60456532     0.10400
Cu224      Cu  0.81697882  0.54889273  0.65804094     0.44200
Cu225      Cu  0.88496942  0.51883295  0.65457862     0.42000
Cu226      Cu  0.87270916  0.57389606  0.70514212     0.43900
N227        N  0.81172190  0.57881662  0.68932430    -0.33300
N228        N  0.83153110  0.58749201  0.70666266    -0.27500
C229        C  0.82034556  0.60565960  0.72509719    -0.03600
C230        C  0.79230647  0.60866206  0.71883271     0.08600
C231        C  0.78751986  0.59135672  0.69619929     0.02400
H232        H  0.83165487  0.61550238  0.74207419     0.10000
H233        H  0.76770562  0.58755261  0.68599223     0.09100
N234        N  0.91176093  0.55662227  0.69747418    -0.34700
N235        N  0.91589768  0.53630469  0.67913448    -0.26900
C236        C  0.94332341  0.53037289  0.67793217    -0.02100
C237        C  0.95702233  0.54774591  0.69637424     0.06500
C238        C  0.93659066  0.56423057  0.70844786     0.04600
H239        H  0.95263220  0.51516665  0.66401536     0.09700
H240        H  0.93955336  0.58092125  0.72340888     0.08500
N241        N  0.14761386  0.50420102  0.63167019    -0.25900
N242        N  0.17305503  0.51501844  0.63309587    -0.33700
C243        C  0.18938901  0.50224036  0.61389458     0.02500
C244        C  0.17322332  0.48262706  0.59995070     0.08500
C245        C  0.14697607  0.48442562  0.61170809    -0.04600
H246        H  0.21121441  0.50700670  0.61026439     0.09200
H247        H  0.12864917  0.47247078  0.60600534     0.10400
Cu248      Cu  0.18329214  0.54695649  0.66124170     0.44200
Cu249      Cu  0.11427327  0.51724682  0.65585933     0.42000
Cu250      Cu  0.12599466  0.57332808  0.70489359     0.43900
N251        N  0.18767300  0.57768454  0.69214732    -0.33300
N252        N  0.16705528  0.58690039  0.70820779    -0.27500
C253        C  0.17737685  0.60529115  0.72693631    -0.03600
C254        C  0.20575505  0.60796012  0.72223692     0.08600
C255        C  0.21159570  0.59016165  0.70017096     0.02400
H256        H  0.16525312  0.61538638  0.74318923     0.10000
H257        H  0.23193819  0.58587549  0.69127085     0.09100
N258        N  0.08696031  0.55608185  0.69723607    -0.34700
N259        N  0.08287393  0.53529906  0.67942499    -0.26900
C260        C  0.05541455  0.52941437  0.67825366    -0.02100
C261        C  0.04169534  0.54732561  0.69620461     0.06500
C262        C  0.06212749  0.56404331  0.70790648     0.04600
H263        H  0.04611462  0.51383558  0.66474898     0.09700
H264        H  0.05917475  0.58108480  0.72246801     0.08500
N265        N  0.61576062  0.51813339  0.85139092    -0.25900
N266        N  0.62617119  0.51952734  0.82579443    -0.33700
C267        C  0.61307631  0.50040568  0.80964431     0.02500
C268        C  0.59367733  0.48652965  0.82609761     0.08500
C269        C  0.59593905  0.49822278  0.85234669    -0.04600
H270        H  0.61734584  0.49691712  0.78769653     0.09200
H271        H  0.58405637  0.49274271  0.87078578     0.10400
Cu272      Cu  0.65765150  0.54790912  0.81510921     0.44200
Cu273      Cu  0.62863659  0.54336802  0.88397256     0.42000
Cu274      Cu  0.68167724  0.59529442  0.87101152     0.43900
N275        N  0.68802519  0.57900938  0.81022007    -0.33300
N276        N  0.69628939  0.59637572  0.83018457    -0.27500
C277        C  0.71476082  0.61475178  0.81942484    -0.03600
C278        C  0.71843605  0.60849793  0.79146860     0.08600
C279        C  0.70123872  0.58580553  0.78632005     0.02400
H280        H  0.72422327  0.63182453  0.83092234     0.10000
H281        H  0.69779783  0.57566897  0.76639649     0.09100
N282        N  0.66379694  0.58874292  0.90997583    -0.34700
N283        N  0.64420276  0.56971961  0.91442951    -0.26900
C284        C  0.63754584  0.56950777  0.94171913    -0.02100
C285        C  0.65370736  0.58932710  0.95499816     0.06500
C286        C  0.67022577  0.60116859  0.93445128     0.04600
H287        H  0.62272394  0.55534584  0.95126677     0.09700
H288        H  0.68620582  0.61693080  0.93714808     0.08500
N289        N  0.61231983  0.52531423  0.14564440    -0.25900
N290        N  0.62597430  0.52447137  0.16967919    -0.33700
C291        C  0.61370381  0.50544995  0.18654493     0.02500
C292        C  0.59129928  0.49389988  0.17230082     0.08500
C293        C  0.59103123  0.50688991  0.14647299    -0.04600
H294        H  0.62074479  0.50024859  0.20741844     0.09200
H295        H  0.57673721  0.50294739  0.12940106     0.10400
Cu296      Cu  0.66063542  0.54970568  0.17736990     0.44200
Cu297      Cu  0.62446167  0.55081282  0.11264519     0.42000
Cu298      Cu  0.68418912  0.59776422  0.12234420     0.43900
N299        N  0.69200667  0.57955543  0.18214302    -0.33300
N300        N  0.70004821  0.59760369  0.16272400    -0.27500
C301        C  0.71862357  0.61560786  0.17400000    -0.03600
C302        C  0.72253378  0.60827412  0.20171011     0.08600
C303        C  0.70544128  0.58540124  0.20610292     0.02400
H304        H  0.72794793  0.63309743  0.16306750     0.10000
H305        H  0.70197697  0.57466852  0.22570286     0.09100
N306        N  0.66382689  0.59188833  0.08449592    -0.34700
N307        N  0.64202553  0.57510703  0.08122004    -0.26900
C308        C  0.63481200  0.57466528  0.05404875    -0.02100
C309        C  0.65286151  0.59196014  0.03967512     0.06500
C310        C  0.67108147  0.60252310  0.05942432     0.04600
H311        H  0.61846536  0.56172704  0.04527840     0.09700
H312        H  0.68889780  0.61595373  0.05575974     0.08500
N313        N  0.84896247  0.48931941  0.35781264    -0.25900
N314        N  0.82368767  0.50058007  0.35743539    -0.33700
C315        C  0.80784435  0.48810797  0.37716329     0.02500
C316        C  0.82409757  0.46815314  0.39036704     0.08500
C317        C  0.84995749  0.46945070  0.37767603    -0.04600
H318        H  0.78654444  0.49388090  0.38218257     0.09200
H319        H  0.86845997  0.45769461  0.38322141     0.10400
Cu320      Cu  0.81335880  0.53410233  0.33168345     0.44200
Cu321      Cu  0.88197572  0.50352598  0.33378325     0.42000
Cu322      Cu  0.87054841  0.56557434  0.29197880     0.43900
N323        N  0.80892337  0.56839847  0.30522661    -0.33300
N324        N  0.82961195  0.57978575  0.29075521    -0.27500
C325        C  0.81930985  0.60046704  0.27463604    -0.03600
C326        C  0.79088042  0.60226844  0.27940688     0.08600
C327        C  0.78495374  0.58162809  0.29876847     0.02400
H328        H  0.83140068  0.61248825  0.25972300     0.10000
H329        H  0.76454742  0.57584981  0.30661864     0.09100
N330        N  0.90927184  0.54667706  0.29677328    -0.34700
N331        N  0.91323532  0.52377356  0.31180457    -0.26900
C332        C  0.94064713  0.51753773  0.31204358    -0.02100
C333        C  0.95446203  0.53741350  0.29636727     0.06500
C334        C  0.93412681  0.55566366  0.28701650     0.04600
H335        H  0.94989262  0.50049632  0.32368872     0.09700
H336        H  0.93720708  0.57452592  0.27494043     0.08500
N337        N  0.14552041  0.50207647  0.36419721    -0.25900
N338        N  0.17073378  0.51340819  0.36310339    -0.33700
C339        C  0.18726133  0.50047049  0.38204963     0.02500
C340        C  0.17143593  0.48018126  0.39546261     0.08500
C341        C  0.14518234  0.48181033  0.38367376    -0.04600
H342        H  0.20897987  0.50556720  0.38587053     0.09200
H343        H  0.12706203  0.46938098  0.38900881     0.10400
Cu344      Cu  0.18002067  0.54609504  0.33542785     0.44200
Cu345      Cu  0.11234742  0.51503167  0.33980711     0.42000
Cu346      Cu  0.12218886  0.57236260  0.29139403     0.43900
N347        N  0.18391422  0.57712707  0.30469020    -0.33300
N348        N  0.16331723  0.58635371  0.28857255    -0.27500
C349        C  0.17365840  0.60516514  0.27022509    -0.03600
C350        C  0.20200443  0.60799640  0.27519024     0.08600
C351        C  0.20776876  0.58999871  0.29709937     0.02400
H352        H  0.16152768  0.61567009  0.25424652     0.10000
H353        H  0.22800182  0.58606382  0.30638991     0.09100
N354        N  0.08385265  0.55296031  0.29823482    -0.34700
N355        N  0.08066246  0.53173573  0.31571780    -0.26900
C356        C  0.05363490  0.52407974  0.31619510    -0.02100
C357        C  0.03917537  0.54127212  0.29816525     0.06500
C358        C  0.05876156  0.55943799  0.28710571     0.04600
H359        H  0.04508227  0.50775294  0.32930499     0.09700
H360        H  0.05502482  0.57640609  0.27263719     0.08500
N361        N  0.61768385  0.73815628  0.36761338    -0.25900
N362        N  0.62824204  0.71258872  0.36672340    -0.33700
C363        C  0.61425446  0.69640222  0.38518927     0.02500
C364        C  0.59410875  0.71280962  0.39805956     0.08500
C365        C  0.59688774  0.73904941  0.38648736    -0.04600
H366        H  0.61835879  0.67444276  0.38884490     0.09200
H367        H  0.58471350  0.75746847  0.39137736     0.10400
Cu368      Cu  0.66076554  0.70193135  0.33945339     0.44200
Cu369      Cu  0.63179799  0.77102632  0.34347580     0.42000
Cu370      Cu  0.68546095  0.75832981  0.29271710     0.43900
N371        N  0.69066276  0.69713428  0.30782015    -0.33300
N372        N  0.69874118  0.71718080  0.29045765    -0.27500
C373        C  0.71670058  0.70646309  0.27157312    -0.03600
C374        C  0.72032611  0.67844991  0.27751924     0.08600
C375        C  0.70361269  0.67322040  0.30056797     0.02400
H376        H  0.72620586  0.71815688  0.25467510     0.10000
H377        H  0.70043843  0.65327875  0.31074429     0.09100
N378        N  0.66981520  0.79780834  0.30111520    -0.34700
N379        N  0.64986104  0.80221577  0.31975245    -0.26900
C380        C  0.64502811  0.82981172  0.32177685    -0.02100
C381        C  0.66279479  0.84331517  0.30355176     0.06500
C382        C  0.67832916  0.82259496  0.29074418     0.04600
H383        H  0.63036300  0.83932612  0.33612229     0.09700
H384        H  0.69503947  0.82530136  0.27576473     0.08500
N385        N  0.61617626  0.03460464  0.36500489    -0.25900
N386        N  0.62517122  0.06056447  0.36175521    -0.33700
C387        C  0.61095058  0.07743106  0.37937297     0.02500
C388        C  0.59223649  0.06107994  0.39422286     0.08500
C389        C  0.59609297  0.03413729  0.38466894    -0.04600
H390        H  0.61414487  0.09975540  0.38132234     0.09200
H391        H  0.58529726  0.01552422  0.39162440     0.10400
Cu392      Cu  0.65682781  0.07061801  0.33359667     0.44200
Cu393      Cu  0.63216479  0.00081278  0.34322704     0.42000
Cu394      Cu  0.68997945  0.01230195  0.29574092     0.43900
N395        N  0.68897764  0.07477901  0.30449020    -0.33300
N396        N  0.70107396  0.05387960  0.29088438    -0.27500
C397        C  0.72066573  0.06427144  0.27347276    -0.03600
C398        C  0.72077808  0.09298814  0.27637260     0.08600
C399        C  0.70054447  0.09896431  0.29608416     0.02400
H400        H  0.73354979  0.05189929  0.25957632     0.10000
H401        H  0.69450157  0.11942751  0.30356536     0.09100
N402        N  0.67345352  0.97319476  0.30424504    -0.34700
N403        N  0.65213212  0.96920901  0.32143891    -0.26900
C404        C  0.64640689  0.94172727  0.32278249    -0.02100
C405        C  0.66497501  0.92790361  0.30560984     0.06500
C406        C  0.68191631  0.94828088  0.29415489     0.04600
H407        H  0.63017311  0.93253139  0.33556118     0.09700
H408        H  0.69915153  0.94529332  0.27983599     0.08500
N409        N  0.85565128  0.27370691  0.64341303    -0.25900
N410        N  0.83189916  0.25991062  0.64011915    -0.33700
C411        C  0.81729451  0.27186276  0.61911012     0.02500
C412        C  0.83277681  0.29413648  0.60891666     0.08500
C413        C  0.85691183  0.29468926  0.62471414    -0.04600
H414        H  0.79717533  0.26467262  0.61163260     0.09200
H415        H  0.87435100  0.30890723  0.62246059     0.10400
Cu416      Cu  0.82178322  0.22526683  0.66470512     0.44200
Cu417      Cu  0.88620011  0.26214965  0.67179604     0.42000
Cu418      Cu  0.87622726  0.19993977  0.71331050     0.43900
N419        N  0.81637600  0.19345504  0.69415897    -0.33300
N420        N  0.83569147  0.18474177  0.71203128    -0.27500
C421        C  0.82423999  0.16591474  0.72961248    -0.03600
C422        C  0.79653787  0.16248411  0.72224094     0.08600
C423        C  0.79225325  0.18015029  0.69976265     0.02400
H424        H  0.83507714  0.15608757  0.74690400     0.10000
H425        H  0.77269108  0.18396574  0.68908208     0.09100
N426        N  0.91389898  0.22116264  0.71097997    -0.34700
N427        N  0.91713293  0.24439371  0.69629379    -0.26900
C428        C  0.94406200  0.25233312  0.69743938    -0.02100
C429        C  0.95835238  0.23322392  0.71362180     0.06500
C430        C  0.93878583  0.21362236  0.72184267     0.04600
H431        H  0.95283346  0.26977119  0.68601500     0.09700
H432        H  0.94253039  0.19469704  0.73363698     0.08500
N433        N  0.14453430  0.27170921  0.63696991    -0.25900
N434        N  0.16933224  0.25947342  0.63562759    -0.33700
C435        C  0.18443807  0.27196791  0.61526269     0.02500
C436        C  0.16817590  0.29289393  0.60346667     0.08500
C437        C  0.14310737  0.29212536  0.61767935    -0.04600
H438        H  0.20550198  0.26613294  0.60938522     0.09200
H439        H  0.12502717  0.30522964  0.61411634     0.10400
Cu440      Cu  0.18040695  0.22613072  0.66189608     0.44200
Cu441      Cu  0.11307862  0.25986026  0.66414817     0.42000
Cu442      Cu  0.12636375  0.20341093  0.71183123     0.43900
N443        N  0.18571346  0.19453943  0.69188614    -0.33300
N444        N  0.16639490  0.18691394  0.71023702    -0.27500
C445        C  0.17727065  0.16772903  0.72777930    -0.03600
C446        C  0.20462688  0.16277783  0.71994896     0.08600
C447        C  0.20931156  0.18010168  0.69720197     0.02400
H448        H  0.16631221  0.15870287  0.74542144     0.10000
H449        H  0.22886387  0.18297234  0.68621250     0.09100
N450        N  0.08773599  0.22266071  0.70815566    -0.34700
N451        N  0.08309421  0.24360631  0.69068985    -0.26900
C452        C  0.05590316  0.25062510  0.69171922    -0.02100
C453        C  0.04292740  0.23329551  0.71076121     0.06500
C454        C  0.06352949  0.21570337  0.72079882     0.04600
H455        H  0.04614351  0.26634263  0.67871371     0.09700
H456        H  0.06098187  0.19853070  0.73527991     0.08500
N457        N  0.38247994  0.73947819  0.63496630    -0.25900
N458        N  0.37094307  0.71433447  0.63538472    -0.33700
C459        C  0.38269907  0.69867397  0.61499691     0.02500
C460        C  0.40240922  0.71499366  0.60133453     0.08500
C461        C  0.40169967  0.74063539  0.61448640    -0.04600
H462        H  0.37741165  0.67710892  0.61058306     0.09200
H463        H  0.41430025  0.75878405  0.60965982     0.10400
Cu464      Cu  0.33994403  0.70380564  0.66448447     0.44200
Cu465      Cu  0.37177819  0.77123308  0.66219580     0.42000
Cu466      Cu  0.31846464  0.75946251  0.71402602     0.43900
N467        N  0.31012734  0.69917237  0.69628895    -0.33300
N468        N  0.30269600  0.71895189  0.71425357    -0.27500
C469        C  0.28414196  0.70827088  0.73262438    -0.03600
C470        C  0.27956269  0.68056115  0.72579312     0.08600
C471        C  0.29630945  0.67550429  0.70273404     0.02400
H472        H  0.27508230  0.71970548  0.74992729     0.10000
H473        H  0.29891251  0.65578111  0.69198631     0.09100
N474        N  0.33796392  0.79785219  0.70822813    -0.34700
N475        N  0.35773931  0.80179371  0.68928335    -0.26900
C476        C  0.36530989  0.82885288  0.68927622    -0.02100
C477        C  0.34958736  0.84254831  0.70917044     0.06500
C478        C  0.33234820  0.82246053  0.72081330     0.04600
H479        H  0.38023500  0.83804753  0.67498889     0.09700
H480        H  0.31624536  0.82564077  0.73635583     0.08500
N481        N  0.38864080  0.02971712  0.63698740    -0.25900
N482        N  0.37544466  0.05399962  0.63564055    -0.33700
C483        C  0.38672729  0.06942636  0.61490977     0.02500
C484        C  0.40792570  0.05394808  0.60278864     0.08500
C485        C  0.40860366  0.02893618  0.61717999    -0.04600
H486        H  0.37982878  0.09015573  0.60898842     0.09200
H487        H  0.42231422  0.01136279  0.61336669     0.10400
Cu488      Cu  0.34228363  0.06411648  0.66184842     0.44200
Cu489      Cu  0.37791416  0.99829128  0.66475403     0.42000
Cu490      Cu  0.31682046  0.00949981  0.70863295     0.43900
N491        N  0.31002687  0.06956353  0.69048735    -0.33300
N492        N  0.30080774  0.04992107  0.70769672    -0.27500
C493        C  0.28146916  0.06114111  0.72488269    -0.03600
C494        C  0.27826908  0.08904721  0.71790730     0.08600
C495        C  0.29672916  0.09367955  0.69616232     0.02400
H496        H  0.27149677  0.05017664  0.74200531     0.10000
H497        H  0.30122654  0.11348333  0.68620693     0.09100
N498        N  0.33813237  0.97169021  0.70601022    -0.34700
N499        N  0.36075409  0.96800560  0.69047390    -0.26900
C500        C  0.36874307  0.94109467  0.69204488    -0.02100
C501        C  0.35032523  0.92726257  0.70938661     0.06500
C502        C  0.33107672  0.94709242  0.71784372     0.04600
H503        H  0.38577012  0.93201539  0.68025202     0.09700
H504        H  0.31270320  0.94370179  0.73056822     0.08500
N505        N  0.63134180  0.26499058  0.84921239    -0.25900
N506        N  0.63201275  0.25417787  0.82377236    -0.33700
C507        C  0.61376076  0.26823300  0.80745345     0.02500
C508        C  0.60126174  0.28869071  0.82369736     0.08500
C509        C  0.61279150  0.28604904  0.84994480    -0.04600
H510        H  0.60972770  0.26370849  0.78564680     0.09200
H511        H  0.60779144  0.29819579  0.86835063     0.10400
Cu512      Cu  0.65815796  0.22079730  0.81397413     0.44200
Cu513      Cu  0.65452232  0.25007999  0.88229166     0.42000
Cu514      Cu  0.69960753  0.19135147  0.87313438     0.43900
N515        N  0.68918643  0.19040943  0.81048262    -0.33300
N516        N  0.70442457  0.18026912  0.83133000    -0.27500
C517        C  0.72376094  0.16260966  0.82083491    -0.03600
C518        C  0.72029883  0.16153871  0.79218360     0.08600
C519        C  0.69827520  0.17926949  0.78633841     0.02400
H520        H  0.73932114  0.15167322  0.83309469     0.10000
H521        H  0.68995739  0.18428106  0.76591679     0.09100
N522        N  0.69174295  0.20914571  0.91203604    -0.34700
N523        N  0.67547607  0.23132635  0.91490272    -0.26900
C524        C  0.67341895  0.23795038  0.94211411    -0.02100
C525        C  0.68914350  0.21904254  0.95710310     0.06500
C526        C  0.70049926  0.20093772  0.93757283     0.04600
H527        H  0.66058627  0.25463610  0.95038531     0.09700
H528        H  0.71340950  0.18282272  0.94161429     0.08500
N529        N  0.62746936  0.26788792  0.15012017    -0.25900
N530        N  0.63460410  0.26215663  0.17623902    -0.33700
C531        C  0.61898116  0.27799316  0.19363732     0.02500
C532        C  0.60136224  0.29431264  0.17746040     0.08500
C533        C  0.60725031  0.28741215  0.15009831    -0.04600
H534        H  0.62030200  0.27755641  0.21622605     0.09200
H535        H  0.59757353  0.29591521  0.13151638     0.10400
Cu536      Cu  0.66506159  0.23255327  0.18599699     0.44200
Cu537      Cu  0.64548718  0.24933491  0.11539503     0.42000
Cu538      Cu  0.69650795  0.19520037  0.12652603     0.43900
N539        N  0.69442422  0.20050038  0.18938599    -0.33300
N540        N  0.70526667  0.18652697  0.16804802    -0.27500
C541        C  0.72286990  0.16681043  0.17785824    -0.03600
C542        C  0.72316488  0.16869163  0.20664859     0.08600
C543        C  0.70499656  0.19015034  0.21328381     0.02400
H544        H  0.73459990  0.15232214  0.16499875     0.10000
H545        H  0.69964160  0.19749393  0.23399002     0.09100
N546        N  0.68598736  0.21014209  0.08725840    -0.34700
N547        N  0.66720728  0.23006637  0.08325003    -0.26900
C548        C  0.66540947  0.23560596  0.05572628    -0.02100
C549        C  0.68398027  0.21835351  0.04191673     0.06500
C550        C  0.69670353  0.20243444  0.06237070     0.04600
H551        H  0.65168497  0.25105187  0.04653332     0.09700
H552        H  0.71253403  0.18655953  0.05946655     0.08500
N553        N  0.38645223  0.51995724  0.85242136    -0.25900
N554        N  0.37248331  0.51843021  0.82855793    -0.33700
C555        C  0.38348685  0.49770653  0.81288858     0.02500
C556        C  0.40525438  0.48585271  0.82778474     0.08500
C557        C  0.40659459  0.50035600  0.85264582    -0.04600
H558        H  0.37601050  0.49160089  0.79241768     0.09200
H559        H  0.42080137  0.49666116  0.86984514     0.10400
Cu560      Cu  0.33886185  0.54446768  0.81897504     0.44200
Cu561      Cu  0.37671495  0.54693562  0.88477523     0.42000
Cu562      Cu  0.31620648  0.59044850  0.87501669     0.43900
N563        N  0.30776272  0.57474308  0.81463459    -0.33300
N564        N  0.29990413  0.59182471  0.83495725    -0.27500
C565        C  0.28144755  0.61051742  0.82477393    -0.03600
C566        C  0.27731678  0.60473033  0.79678400     0.08600
C567        C  0.29429641  0.58200182  0.79101736     0.02400
H568        H  0.27262108  0.62772512  0.83657678     0.10000
H569        H  0.29771583  0.57243819  0.77081359     0.09100
N570        N  0.33648942  0.58613193  0.91299544    -0.34700
N571        N  0.35915467  0.57063468  0.91638681    -0.26900
C572        C  0.36627882  0.57059518  0.94359195    -0.02100
C573        C  0.34717556  0.58687401  0.95783321     0.06500
C574        C  0.32850109  0.59636369  0.93797753     0.04600
H575        H  0.38311990  0.55840276  0.95248928     0.09700
H576        H  0.30985693  0.60864589  0.94152849     0.08500
N577        N  0.37925578  0.51790337  0.14967885    -0.25900
N578        N  0.36953777  0.52111894  0.17536722    -0.33700
C579        C  0.38257673  0.50271708  0.19237377     0.02500
C580        C  0.40119551  0.48738019  0.17632003     0.08500
C581        C  0.39857696  0.49751556  0.14947936    -0.04600
H582        H  0.37883974  0.50074143  0.21460921     0.09200
H583        H  0.40994808  0.49071457  0.13115565     0.10400
Cu584      Cu  0.33898619  0.55081599  0.18456699     0.44200
Cu585      Cu  0.36623501  0.54147602  0.11598608     0.42000
Cu586      Cu  0.31729465  0.59749711  0.12634651     0.43900
N587        N  0.30871568  0.58211450  0.18716751    -0.33300
N588        N  0.30143596  0.59932395  0.16667825    -0.27500
C589        C  0.28217461  0.61752026  0.17630859    -0.03600
C590        C  0.27690194  0.61115021  0.20397123     0.08600
C591        C  0.29407676  0.58878175  0.21020461     0.02400
H592        H  0.27303257  0.63432562  0.16419272     0.10000
H593        H  0.29637768  0.57864151  0.23028927     0.09100
N594        N  0.33397721  0.58749483  0.08759010    -0.34700
N595        N  0.35181138  0.56664142  0.08405593    -0.26900
C596        C  0.35812401  0.56435352  0.05678514    -0.02100
C597        C  0.34360124  0.58475566  0.04255237     0.06500
C598        C  0.32839584  0.59910691  0.06251212     0.04600
H599        H  0.37190315  0.54872343  0.04799190     0.09700
H600        H  0.31404639  0.61623860  0.05908251     0.08500
N601        N  0.35689741  0.73924429  0.38780804    -0.25900
N602        N  0.35831388  0.71531723  0.37397866    -0.33700
C603        C  0.37893533  0.69956263  0.38508524     0.02500
C604        C  0.39088380  0.71446339  0.40683691     0.08500
C605        C  0.37649250  0.73945781  0.40799282    -0.04600
H606        H  0.38496554  0.67905176  0.37765010     0.09200
H607        H  0.38028731  0.75672941  0.42208372     0.10400
Cu608      Cu  0.33208559  0.70625802  0.34035314     0.44200
Cu609      Cu  0.32963134  0.77124942  0.37744935     0.42000
Cu610      Cu  0.28292170  0.76085358  0.31873189     0.43900
N611        N  0.30190818  0.70157207  0.30921675    -0.33300
N612        N  0.28369721  0.72110257  0.30185339    -0.27500
C613        C  0.26584209  0.71047284  0.28284194    -0.03600
C614        C  0.27338345  0.68305831  0.27787167     0.08600
C615        C  0.29622119  0.67806145  0.29488303     0.02400
H616        H  0.24825062  0.72162102  0.27395683     0.10000
H617        H  0.30711078  0.65841954  0.29753661     0.09100
N618        N  0.28797405  0.79877275  0.33878647    -0.34700
N619        N  0.30477248  0.80237156  0.36048580    -0.26900
C620        C  0.30514211  0.82961830  0.36736597    -0.02100
C621        C  0.28774419  0.84365971  0.34915990     0.06500
C622        C  0.27721975  0.82367173  0.33121205     0.04600
H623        H  0.31825215  0.83867618  0.38340950     0.09700
H624        H  0.26391381  0.82707305  0.31325572     0.08500
N625        N  0.36192363  0.03220675  0.38285535    -0.25900
N626        N  0.36141877  0.05720382  0.37101010    -0.33700
C627        C  0.38076436  0.07354007  0.38353378     0.02500
C628        C  0.39382611  0.05781877  0.40408070     0.08500
C629        C  0.38144668  0.03181500  0.40306270    -0.04600
H630        H  0.38503453  0.09507566  0.37802656     0.09200
H631        H  0.38631371  0.01387185  0.41593827     0.10400
Cu632      Cu  0.33397915  0.06669761  0.33834234     0.44200
Cu633      Cu  0.33637303  0.99955473  0.37099553     0.42000
Cu634      Cu  0.28434353  0.01160918  0.31754781     0.43900
N635        N  0.30335592  0.07097535  0.30741778    -0.33300
N636        N  0.28490627  0.05147976  0.30053023    -0.27500
C637        C  0.26677423  0.06211616  0.28174222    -0.03600
C638        C  0.27437298  0.08948863  0.27633951     0.08600
C639        C  0.29758306  0.09437811  0.29292038     0.02400
H640        H  0.24882717  0.05106651  0.27343847     0.10000
H641        H  0.30848629  0.11403145  0.29543243     0.09100
N642        N  0.29100588  0.97306466  0.33620201    -0.34700
N643        N  0.31014171  0.96890215  0.35575402    -0.26900
C644        C  0.31057379  0.94167550  0.36263471    -0.02100
C645        C  0.29075794  0.92817011  0.34668588     0.06500
C646        C  0.27870605  0.94846882  0.33004938     0.04600
H647        H  0.32483442  0.93234179  0.37750071     0.09700
H648        H  0.26289453  0.94552628  0.31416278     0.08500
N649        N  0.85615797  0.24274940  0.39113981    -0.25900
N650        N  0.83233743  0.24558381  0.37734511    -0.33700
C651        C  0.81746442  0.26651207  0.38903675     0.02500
C652        C  0.83281440  0.27712824  0.41114129     0.08500
C653        C  0.85717605  0.26170604  0.41189101    -0.04600
H654        H  0.79714487  0.27349073  0.38190820     0.09200
H655        H  0.87447176  0.26420431  0.42624298     0.10400
Cu656      Cu  0.82186116  0.22048269  0.34333307     0.44200
Cu657      Cu  0.88676860  0.21412020  0.38048201     0.42000
Cu658      Cu  0.87511576  0.17085773  0.31956197     0.43900
N659        N  0.81595510  0.19124089  0.31157728    -0.33300
N660        N  0.83510314  0.17309941  0.30312148    -0.27500
C661        C  0.82374648  0.15598254  0.28383683    -0.03600
C662        C  0.79623165  0.16386969  0.27991347     0.08600
C663        C  0.79196646  0.18617503  0.29780923     0.02400
H664        H  0.83446589  0.13856171  0.27411625     0.10000
H665        H  0.77251216  0.19713663  0.30140586     0.09100
N666        N  0.91276823  0.17243813  0.34090014    -0.34700
N667        N  0.91666532  0.18788728  0.36352862    -0.26900
C668        C  0.94351072  0.18584859  0.37155182    -0.02100
C669        C  0.95702873  0.16825248  0.35315619     0.06500
C670        C  0.93713119  0.16016464  0.33385154     0.04600
H671        H  0.95279459  0.19754251  0.38853758     0.09700
H672        H  0.94034433  0.14748724  0.31540941     0.08500
N673        N  0.14193356  0.24699496  0.38714254    -0.25900
N674        N  0.16661098  0.24790729  0.37462159    -0.33700
C675        C  0.18179354  0.26877917  0.38612307     0.02500
C676        C  0.16572201  0.28138120  0.40669233     0.08500
C677        C  0.14066724  0.26710923  0.40676668    -0.04600
H678        H  0.20283955  0.27436152  0.37993902     0.09200
H679        H  0.12278562  0.27105230  0.42003265     0.10400
Cu680      Cu  0.17762612  0.22045817  0.34226624     0.44200
Cu681      Cu  0.11062817  0.21893489  0.37698479     0.42000
Cu682      Cu  0.12372185  0.17039908  0.32088174     0.43900
N683        N  0.18268907  0.19040567  0.31072619    -0.33300
N684        N  0.16319593  0.17218396  0.30328706    -0.27500
C685        C  0.17364149  0.15478493  0.28374613    -0.03600
C686        C  0.20098550  0.16246998  0.27847047     0.08600
C687        C  0.20603433  0.18508699  0.29589351     0.02400
H688        H  0.16239210  0.13734914  0.27470965     0.10000
H689        H  0.22566429  0.19598952  0.29852527     0.09100
N690        N  0.08576577  0.17326935  0.34140337    -0.34700
N691        N  0.08116569  0.19096802  0.36216514    -0.26900
C692        C  0.05420205  0.18926993  0.36988076    -0.02100
C693        C  0.04136906  0.16954581  0.35321363     0.06500
C694        C  0.06178622  0.15982274  0.33527181     0.04600
H695        H  0.04439908  0.20243945  0.38543387     0.09700
H696        H  0.05917950  0.14517164  0.31824961     0.08500
N697        N  0.37440010  0.25781648  0.85316498    -0.25900
N698        N  0.36866904  0.25182268  0.82679004    -0.33700
C699        C  0.38508712  0.26762963  0.81012410     0.02500
C700        C  0.40176083  0.28417003  0.82708429     0.08500
C701        C  0.39447642  0.27745683  0.85415265    -0.04600
H702        H  0.38494522  0.26703468  0.78749816     0.09200
H703        H  0.40322914  0.28601066  0.87316932     0.10400
Cu704      Cu  0.33881235  0.22185746  0.81614848     0.44200
Cu705      Cu  0.35564557  0.23807267  0.88655276     0.42000
Cu706      Cu  0.30742924  0.18121074  0.87412809     0.43900
N707        N  0.30842824  0.19084915  0.81149877    -0.33300
N708        N  0.29718612  0.17610595  0.83212242    -0.27500
C709        C  0.27864368  0.15778761  0.82129180    -0.03600
C710        C  0.27825482  0.16128554  0.79260404     0.08600
C711        C  0.29731531  0.18229801  0.78712201     0.02400
H712        H  0.26656617  0.14293193  0.83336152     0.10000
H713        H  0.30290635  0.19056281  0.76683534     0.09100
N714        N  0.32137300  0.19262043  0.91374118    -0.34700
N715        N  0.33879069  0.21373617  0.91784726    -0.26900
C716        C  0.34397624  0.21634072  0.94530497    -0.02100
C717        C  0.32915848  0.19592839  0.95914428     0.06500
C718        C  0.31494117  0.18116806  0.93871935     0.04600
H719        H  0.35747118  0.23201422  0.95445818     0.09700
H720        H  0.30092874  0.16368225  0.94172443     0.08500
N721        N  0.38245481  0.25672054  0.15013419    -0.25900
N722        N  0.37420367  0.25222871  0.17617521    -0.33700
C723        C  0.38859043  0.26938326  0.19339529     0.02500
C724        C  0.40664981  0.28528775  0.17728523     0.08500
C725        C  0.40222487  0.27677069  0.15003821    -0.04600
H726        H  0.38585551  0.27040313  0.21583539     0.09200
H727        H  0.41238662  0.28473791  0.13147975     0.10400
Cu728      Cu  0.34288500  0.22349381  0.18629985     0.44200
Cu729      Cu  0.36591368  0.23595035  0.11573895     0.42000
Cu730      Cu  0.30737241  0.18926844  0.12813504     0.43900
N731        N  0.30978785  0.19529191  0.19072086    -0.33300
N732        N  0.29663688  0.18322290  0.16954133    -0.27500
C733        C  0.27671497  0.16598936  0.17953070    -0.03600
C734        C  0.27733656  0.16739049  0.20833935     0.08600
C735        C  0.29854519  0.18598674  0.21478075     0.02400
H736        H  0.26329025  0.15292586  0.16679340     0.10000
H737        H  0.30559691  0.19190904  0.23543776     0.09100
N738        N  0.32419472  0.19663648  0.08903129    -0.34700
N739        N  0.34571374  0.21346395  0.08452743    -0.26900
C740        C  0.35131046  0.21391635  0.05696007    -0.02100
C741        C  0.33246092  0.19651738  0.04370973     0.06500
C742        C  0.31549850  0.18592553  0.06448582     0.04600
H743        H  0.36745839  0.22643990  0.04727874     0.09700
H744        H  0.29789464  0.17196378  0.06198186     0.08500
N745        N  0.12679579  0.23739314  0.12031292    -0.25900
N746        N  0.12944055  0.21224569  0.13153720    -0.33700
C747        C  0.11195257  0.19447391  0.11830198     0.02500
C748        C  0.09780145  0.20939040  0.09792762     0.08500
C749        C  0.10763269  0.23644131  0.09976830    -0.04600
H750        H  0.10988814  0.17243227  0.12302425     0.09200
H751        H  0.10150052  0.25408698  0.08702341     0.10400
Cu752      Cu  0.15766428  0.20410995  0.16374697     0.44200
Cu753      Cu  0.14981505  0.27167335  0.13299426     0.42000
Cu754      Cu  0.20590531  0.26025009  0.18314699     0.43900
N755        N  0.18944337  0.20033758  0.19338376    -0.33300
N756        N  0.20775650  0.22017889  0.19955736    -0.27500
C757        C  0.22670790  0.20993787  0.21776648    -0.03600
C758        C  0.21967479  0.18248857  0.22357375     0.08600
C759        C  0.19604180  0.17711919  0.20778527     0.02400
H760        H  0.24448885  0.22144242  0.22575158     0.10000
H761        H  0.18521156  0.15735508  0.20593336     0.09100
N762        N  0.19527232  0.29911148  0.16720014    -0.34700
N763        N  0.17472036  0.30309709  0.14907991    -0.26900
C764        C  0.17155623  0.33065870  0.14464859    -0.02100
C765        C  0.19100829  0.34454562  0.16073133     0.06500
C766        C  0.20572459  0.32412727  0.17485290     0.04600
H767        H  0.15553489  0.33987282  0.13161597     0.09700
H768        H  0.22188998  0.32718433  0.19035426     0.08500
N769        N  0.12343429  0.53497903  0.12120105    -0.25900
N770        N  0.12876483  0.56134543  0.12766256    -0.33700
C771        C  0.11202198  0.57802971  0.11221278     0.02500
C772        C  0.09558914  0.56107230  0.09544044     0.08500
C773        C  0.10332167  0.53403135  0.10162915    -0.04600
H774        H  0.11191254  0.60065162  0.11308154     0.09200
H775        H  0.09509449  0.51504482  0.09250220     0.10400
Cu776      Cu  0.15894438  0.57210389  0.15722618     0.44200
Cu777      Cu  0.14398204  0.50127810  0.13849634     0.42000
Cu778      Cu  0.19997830  0.51367586  0.18686580     0.43900
N779        N  0.19020808  0.57608751  0.18739990    -0.33300
N780        N  0.20514401  0.55517804  0.19780579    -0.27500
C781        C  0.22351117  0.56531831  0.21660833    -0.03600
C782        C  0.21981024  0.59386930  0.21811163     0.08600
C783        C  0.19866285  0.60005235  0.19941798     0.02400
H784        H  0.23835789  0.55283511  0.22827085     0.10000
H785        H  0.19015312  0.62049211  0.19480741     0.09100
N786        N  0.18867996  0.47417329  0.17345160    -0.34700
N787        N  0.16780905  0.46982054  0.15583299    -0.26900
C788        C  0.16551483  0.44228272  0.15083613    -0.02100
C789        C  0.18593661  0.42879906  0.16602853     0.06500
C790        C  0.20031916  0.44942573  0.18021212     0.04600
H791        H  0.15031922  0.43288543  0.13697261     0.09700
H792        H  0.21791301  0.44675728  0.19415351     0.08500
N793        N  0.35062659  0.02195308  0.11572060    -0.25900
N794        N  0.32449750  0.02536665  0.12413528    -0.33700
C795        C  0.30792804  0.00778482  0.10946984     0.02500
C796        C  0.32471261  0.99284587  0.09114020     0.08500
C797        C  0.35153615  0.00230319  0.09567109    -0.04600
H798        H  0.28554402  0.00581993  0.11218351     0.09200
H799        H  0.37040238  0.99524650  0.08539562     0.10400
Cu800      Cu  0.31414975  0.05356134  0.15592527     0.44200
Cu801      Cu  0.38419800  0.04346925  0.13205467     0.42000
Cu802      Cu  0.37252107  0.09426469  0.18628526     0.43900
N803        N  0.31041240  0.08245210  0.18859126    -0.33300
N804        N  0.33119947  0.09745372  0.19915864    -0.27500
C805        C  0.32104886  0.11457206  0.21915192    -0.03600
C806        C  0.29265299  0.10982186  0.22147642     0.08600
C807        C  0.28660181  0.08949364  0.20180832     0.02400
H808        H  0.33334978  0.12959217  0.23080402     0.10000
H809        H  0.26621204  0.08102714  0.19693112     0.09100
N810        N  0.41181074  0.08503037  0.17038730    -0.34700
N811        N  0.41580761  0.06626996  0.15044966    -0.26900
C812        C  0.44328377  0.06421634  0.14500990    -0.02100
C813        C  0.45715974  0.08257414  0.16233355     0.06500
C814        C  0.43678413  0.09547114  0.17825311     0.04600
H815        H  0.45243864  0.05008093  0.12991213     0.09700
H816        H  0.43983741  0.11084072  0.19454873     0.08500
N817        N  0.64771814  0.01781940  0.11890586    -0.25900
N818        N  0.67356602  0.02031239  0.12844741    -0.33700
C819        C  0.69010322  0.00206432  0.11453674     0.02500
C820        C  0.67361034  0.98761147  0.09551677     0.08500
C821        C  0.64697349  0.99811379  0.09886953    -0.04600
H822        H  0.71233957  0.99959399  0.11794225     0.09200
H823        H  0.62839078  0.99196097  0.08755600     0.10400
Cu824      Cu  0.68370644  0.04922690  0.15980834     0.44200
Cu825      Cu  0.61443277  0.04126333  0.13332027     0.42000
Cu826      Cu  0.62650590  0.09512564  0.18469208     0.43900
N827        N  0.68795529  0.08105182  0.18969218    -0.33300
N828        N  0.66763902  0.09798767  0.19803224    -0.27500
C829        C  0.67805584  0.11668838  0.21639297    -0.03600
C830        C  0.70615033  0.11108598  0.21992098     0.08600
C831        C  0.71173763  0.08844861  0.20279023     0.02400
H832        H  0.66608681  0.13315373  0.22631550     0.10000
H833        H  0.73178300  0.07845149  0.19967049     0.09100
N834        N  0.58724817  0.08543853  0.16914890    -0.34700
N835        N  0.58306307  0.06562491  0.15029020    -0.26900
C836        C  0.55552478  0.06337190  0.14521188    -0.02100
C837        C  0.54183692  0.08268048  0.16164995     0.06500
C838        C  0.56237625  0.09635966  0.17665671     0.04600
H839        H  0.54618553  0.04834478  0.13112711     0.09700
H840        H  0.55949205  0.11246729  0.19225342     0.08500
N841        N  0.35431363  0.99789171  0.85648742    -0.25900
N842        N  0.33145179  0.01301533  0.86017426    -0.33700
C843        C  0.31681094  0.00220142  0.88177540     0.02500
C844        C  0.33136814  0.97927438  0.89192283     0.08500
C845        C  0.35497598  0.97717056  0.87548858    -0.04600
H846        H  0.29721152  0.01044767  0.88952192     0.09200
H847        H  0.37158846  0.96195100  0.87738023     0.10400
Cu848      Cu  0.32231793  0.04725230  0.83464694     0.44200
Cu849      Cu  0.38435125  0.00703561  0.82680646     0.42000
Cu850      Cu  0.37511664  0.06651829  0.78148234     0.43900
N851        N  0.31673048  0.07706315  0.80320644    -0.33300
N852        N  0.33540924  0.08352939  0.78377618    -0.27500
C853        C  0.32381083  0.10139414  0.76534246    -0.03600
C854        C  0.29663733  0.10649400  0.77366967     0.08600
C855        C  0.29284755  0.09083021  0.79767652     0.02400
H856        H  0.33408324  0.10925352  0.74674949     0.10000
H857        H  0.27367117  0.08851327  0.80943616     0.09100
N858        N  0.41234563  0.04474979  0.78475663    -0.34700
N859        N  0.41532442  0.02254370  0.80098925    -0.26900
C860        C  0.44222894  0.01447542  0.80072599    -0.02100
C861        C  0.45677145  0.03243057  0.78349971     0.06500
C862        C  0.43737780  0.05147980  0.77372943     0.04600
H863        H  0.45084152  0.99800933  0.81361727     0.09700
H864        H  0.44138993  0.06974442  0.76102188     0.08500
N865        N  0.64581227  0.99939237  0.85883662    -0.25900
N866        N  0.67042162  0.01200357  0.85851638    -0.33700
C867        C  0.68657805  0.00098906  0.87888668     0.02500
C868        C  0.67115947  0.98059086  0.89249660     0.08500
C869        C  0.64551230  0.98010050  0.87929436    -0.04600
H870        H  0.70768683  0.00761923  0.88365427     0.09200
H871        H  0.62776897  0.96707534  0.88446749     0.10400
Cu872      Cu  0.67931498  0.04423960  0.83055678     0.44200
Cu873      Cu  0.61328808  0.01028456  0.83251858     0.42000
Cu874      Cu  0.62361226  0.06772633  0.78327541     0.43900
N875        N  0.68377180  0.07545603  0.80044751    -0.33300
N876        N  0.66399928  0.08369286  0.78287221    -0.27500
C877        C  0.67483153  0.10276570  0.76510131    -0.03600
C878        C  0.70260530  0.10682071  0.77213229     0.08600
C879        C  0.70752403  0.08924446  0.79452479     0.02400
H880        H  0.66355027  0.11240680  0.74802992     0.10000
H881        H  0.72726632  0.08590435  0.80502154     0.09100
N882        N  0.58578056  0.04726110  0.78919173    -0.34700
N883        N  0.58231371  0.02625173  0.80690513    -0.26900
C884        C  0.55537477  0.01824774  0.80656434    -0.02100
C885        C  0.54135397  0.03494045  0.78772155     0.06500
C886        C  0.56103367  0.05320104  0.77709833     0.04600
H887        H  0.54655718  0.00206528  0.81967690     0.09700
H888        H  0.55755840  0.06995178  0.76231732     0.08500
N889        N  0.35157218  0.77279877  0.13354968    -0.25900
N890        N  0.32559182  0.76369098  0.13625265    -0.33700
C891        C  0.30911099  0.77782400  0.11816687     0.02500
C892        C  0.32574185  0.79659235  0.10361801     0.08500
C893        C  0.35244357  0.79283474  0.11384208    -0.04600
H894        H  0.28688760  0.77441038  0.11555784     0.09200
H895        H  0.37122888  0.80347136  0.10710970     0.10400
Cu896      Cu  0.31519004  0.73173279  0.16423611     0.44200
Cu897      Cu  0.38501227  0.75634643  0.15540083     0.42000
Cu898      Cu  0.37302276  0.69706764  0.20134419     0.43900
N899        N  0.31041265  0.69961671  0.19356512    -0.33300
N900        N  0.33117664  0.68701434  0.20692795    -0.27500
C901        C  0.32052328  0.66754143  0.22434951    -0.03600
C902        C  0.29175971  0.66796537  0.22173639     0.08600
C903        C  0.28605674  0.68848539  0.20218040     0.02400
H904        H  0.33277603  0.65425844  0.23799226     0.10000
H905        H  0.26566125  0.69493119  0.19485924     0.09100
N906        N  0.41240049  0.71252562  0.19171933    -0.34700
N907        N  0.41648649  0.73445477  0.17531815    -0.26900
C908        C  0.44408717  0.73875812  0.17235590    -0.02100
C909        C  0.45792958  0.71862193  0.18760913     0.06500
C910        C  0.43741558  0.70222567  0.19962863     0.04600
H911        H  0.45332237  0.75480749  0.15936755     0.09700
H912        H  0.44036743  0.68388420  0.21251760    -0.05900
N913        N  0.64857235  0.75906396  0.11899361    -0.25900
N914        N  0.67502509  0.75347931  0.12493923    -0.33700
C915        C  0.69151572  0.76955754  0.10854896     0.02500
C916        C  0.67437827  0.78577866  0.09168727     0.08500
C917        C  0.64741724  0.77860147  0.09883367    -0.04600
H918        H  0.71413465  0.76980076  0.10925496     0.09200
H919        H  0.62832103  0.78740200  0.09051890     0.10400
Cu920      Cu  0.68629192  0.72476072  0.15606122     0.44200
Cu921      Cu  0.61477581  0.74168796  0.13946074     0.42000
Cu922      Cu  0.62741131  0.69448382  0.19594650     0.43900
N923        N  0.69019421  0.69515824  0.18818026    -0.33300
N924        N  0.66896343  0.68455842  0.20252014    -0.27500
C925        C  0.67873680  0.66621382  0.22151791    -0.03600
C926        C  0.70742132  0.66512387  0.21897106     0.08600
C927        C  0.71406254  0.68366401  0.19774462     0.02400
H928        H  0.66587749  0.65447703  0.23600597     0.10000
H929        H  0.73472061  0.68842279  0.18986323     0.09100
N930        N  0.58772889  0.70708207  0.18438390    -0.34700
N931        N  0.58321974  0.72445734  0.16334975    -0.26900
C932        C  0.55560598  0.72903100  0.16091370    -0.02100
C933        C  0.54224473  0.71375053  0.18138393     0.06500
C934        C  0.56304203  0.70003029  0.19597249     0.04600
H935        H  0.54606148  0.74260775  0.14555033     0.09700
H936        H  0.56052206  0.68618842  0.21366979     0.08500
N937        N  0.88928976  0.23598433  0.13755373    -0.25900
N938        N  0.87620800  0.21161595  0.13840949    -0.33700
C939        C  0.88710375  0.19465368  0.11866523     0.02500
C940        C  0.90793945  0.20923054  0.10487602     0.08500
C941        C  0.90879376  0.23527868  0.11729450    -0.04600
H942        H  0.88017483  0.17350573  0.11451883     0.09200
H943        H  0.92232286  0.25255262  0.11182090     0.10400
Cu944      Cu  0.84373298  0.20361566  0.16621442     0.44200
Cu945      Cu  0.87918280  0.26946373  0.16319133     0.42000
Cu946      Cu  0.82265166  0.26023362  0.21318889     0.43900
N947        N  0.81224118  0.20048158  0.19607951    -0.33300
N948        N  0.80483965  0.22070201  0.21350128    -0.27500
C949        C  0.78515434  0.21091143  0.23115466    -0.03600
C950        C  0.77984345  0.18334293  0.22426351     0.08600
C951        C  0.79734898  0.17741713  0.20205834     0.02400
H952        H  0.77604443  0.22272040  0.24819681     0.10000
H953        H  0.79994756  0.15742284  0.19181421     0.09100
N954        N  0.84299060  0.29793857  0.20651395    -0.34700
N955        N  0.86365311  0.30117899  0.18836915    -0.26900
C956        C  0.87085400  0.32835812  0.18742529    -0.02100
C957        C  0.85395928  0.34275665  0.20585780     0.06500
C958        C  0.83647420  0.32300834  0.21759518     0.04600
H959        H  0.88629753  0.33711246  0.17341658     0.09700
H960        H  0.81951071  0.32669668  0.23207610     0.08500
N961        N  0.88508297  0.53384718  0.13654122    -0.25900
N962        N  0.87048896  0.55729454  0.13495725    -0.33700
C963        C  0.88140347  0.57345418  0.11453654     0.02500
C964        C  0.90383126  0.55927462  0.10292667     0.08500
C965        C  0.90556209  0.53431850  0.11728800    -0.04600
H966        H  0.87342428  0.59374025  0.10843742     0.09200
H967        H  0.92027202  0.51752040  0.11371210     0.10400
Cu968      Cu  0.83640965  0.56500639  0.16101494     0.44200
Cu969      Cu  0.87552452  0.50153203  0.16360893     0.42000
Cu970      Cu  0.81687462  0.50935898  0.21066641     0.43900
N971        N  0.80598842  0.56878717  0.19201183    -0.33300
N972        N  0.79946711  0.54917909  0.21047789    -0.27500
C973        C  0.78119695  0.55983407  0.22913671    -0.03600
C974        C  0.77590537  0.58735230  0.22189900     0.08600
C975        C  0.79183629  0.59224971  0.19828380     0.02400
H976        H  0.77309716  0.54865739  0.24706960     0.10000
H977        H  0.79412698  0.61192040  0.18736873     0.09100
N978        N  0.83836493  0.47199731  0.20517046    -0.34700
N979        N  0.86009052  0.46951950  0.18820199    -0.26900
C980        C  0.86854549  0.44271718  0.18783714    -0.02100
C981        C  0.85137559  0.42768275  0.20543032     0.06500
C982        C  0.83237076  0.44669339  0.21607547     0.04600
H983        H  0.88516392  0.43462521  0.17481120     0.09700
H984        H  0.81495250  0.44234759  0.22981322     0.08500
N985        N  0.86377032  0.00126435  0.35158152    -0.25900
N986        N  0.86123035  0.01121675  0.32589885    -0.33700
C987        C  0.87905340  0.99744721  0.30892379     0.02500
C988        C  0.89330905  0.97804139  0.32492307     0.08500
C989        C  0.88322446  0.98098859  0.35176666    -0.04600
H990        H  0.88136325  0.00125188  0.28673204     0.09200
H991        H  0.88936532  0.96916585  0.37003761     0.10400
Cu992      Cu  0.83332383  0.04294860  0.31612799     0.44200
Cu993      Cu  0.83995297  0.01474928  0.38505446     0.42000
Cu994      Cu  0.78712581  0.06700116  0.37316459     0.43900
N995        N  0.80408495  0.07484817  0.31267982    -0.33300
N996        N  0.78723507  0.08344701  0.33293165    -0.27500
C997        C  0.77020808  0.10349678  0.32278378    -0.03600
C998        C  0.77695260  0.10778590  0.29501370     0.08600
C999        C  0.79830563  0.08923839  0.28926350     0.02400
H1000       H  0.75364978  0.11355764  0.33449893     0.10000
H1001       H  0.80822989  0.08575872  0.26924571     0.09100
N1002       N  0.79288245  0.04731243  0.41147625    -0.34700
N1003       N  0.81249146  0.02823382  0.41563222    -0.26900
C1004       C  0.81196558  0.02013671  0.44254659    -0.02100
C1005       C  0.79101698  0.03477760  0.45590777     0.06500
C1006       C  0.77932373  0.05193122  0.43577147     0.04600
H1007       H  0.82635157  0.00536745  0.45184298     0.09700
H1008       H  0.76292232  0.06721232  0.43870596     0.08500
N1009       N  0.86209039  0.99980026  0.64367103    -0.25900
N1010       N  0.86396467  0.01389359  0.66741035    -0.33700
C1011       C  0.88448808  0.00251747  0.68314156     0.02500
C1012       C  0.89587832  0.98031536  0.66840429     0.08500
C1013       C  0.88126703  0.97921209  0.64354368    -0.04600
H1014       H  0.89060122  0.00984045  0.70366414     0.09200
H1015       H  0.88436263  0.96460130  0.62656903     0.10400
Cu1016     Cu  0.83772420  0.04763181  0.67644775     0.44200
Cu1017     Cu  0.83388451  0.00942924  0.61222735     0.42000
Cu1018     Cu  0.78665697  0.06759068  0.62231318     0.43900
N1019       N  0.80707415  0.07840492  0.68125215    -0.33300
N1020       N  0.78828554  0.08520985  0.66205012    -0.27500
C1021       C  0.77002962  0.10360920  0.67316092    -0.03600
C1022       C  0.77781904  0.10874887  0.70055964     0.08600
C1023       C  0.80135301  0.09249347  0.70492921     0.02400
H1024       H  0.75175765  0.11166156  0.66247925     0.10000
H1025       H  0.81245527  0.08979523  0.72444443     0.09100
N1026       N  0.78997790  0.04567172  0.58490287    -0.34700
N1027       N  0.80697758  0.02407634  0.58159994    -0.26900
C1028       C  0.80609062  0.01565163  0.55478983    -0.02100
C1029       C  0.78767507  0.03271809  0.54058554     0.06500
C1030       C  0.77785524  0.05162592  0.56014496     0.04600
H1031       H  0.81922722  0.99950011  0.54595922     0.09700
H1032       H  0.76424071  0.06927845  0.55638109     0.08500
N1033       N  0.12152806  0.76147722  0.35281194    -0.25900
N1034       N  0.12737060  0.75484904  0.32659265    -0.33700
C1035       C  0.11164700  0.77070306  0.30938762     0.02500
C1036       C  0.09529137  0.78799081  0.32576161     0.08500
C1037       C  0.10198603  0.78167580  0.35308690    -0.04600
H1038       H  0.11193917  0.76949860  0.28678772     0.09200
H1039       H  0.09310893  0.79079135  0.37178012     0.10400
Cu1040     Cu  0.15621686  0.72424230  0.31609096     0.44200
Cu1041     Cu  0.13962415  0.74229293  0.38709592     0.42000
Cu1042     Cu  0.19252824  0.69002932  0.37396201     0.43900
N1043       N  0.18675726  0.69379579  0.31143620    -0.33300
N1044       N  0.20033690  0.68167891  0.33230993    -0.27500
C1045       C  0.21918141  0.66355547  0.32182477    -0.03600
C1046       C  0.21711861  0.66435165  0.29307171     0.08600
C1047       C  0.19648721  0.68363630  0.28714323     0.02400
H1048       H  0.23335708  0.65093283  0.33418898     0.10000
H1049       H  0.18938995  0.69012381  0.26666800     0.09100
N1050       N  0.17877941  0.70055234  0.41353391    -0.34700
N1051       N  0.15932218  0.71965656  0.41826106    -0.26900
C1052       C  0.15435807  0.72105253  0.44588958    -0.02100
C1053       C  0.17150018  0.70190744  0.45897577     0.06500
C1054       C  0.18676325  0.68922683  0.43804470     0.04600
H1055       H  0.13922366  0.73475117  0.45562142     0.09700
H1056       H  0.20219663  0.67286472  0.44033231     0.08500
N1057       N  0.12026522  0.75541456  0.64914778    -0.25900
N1058       N  0.12985893  0.75381130  0.67505503    -0.33700
C1059       C  0.11612207  0.77273332  0.69093489     0.02500
C1060       C  0.09719294  0.78668850  0.67396560     0.08500
C1061       C  0.10038572  0.77522856  0.64772328    -0.04600
H1062       H  0.11969046  0.77609159  0.71303346     0.09200
H1063       H  0.08919475  0.78091413  0.62891209     0.10400
Cu1064     Cu  0.16148083  0.72568216  0.68628754     0.44200
Cu1065     Cu  0.13489393  0.73146970  0.61636003     0.42000
Cu1066     Cu  0.19244126  0.68529783  0.62778348     0.43900
N1067       N  0.19271111  0.69519911  0.69031336    -0.33300
N1068       N  0.20362173  0.68073026  0.66932069    -0.27500
C1069       C  0.22216021  0.66209696  0.67945956    -0.03600
C1070       C  0.22308221  0.66509120  0.70810619     0.08600
C1071       C  0.20422072  0.68613677  0.71434935     0.02400
H1072       H  0.23365659  0.64712975  0.66693527     0.10000
H1073       H  0.19875798  0.69377619  0.73491988     0.09100
N1074       N  0.17582993  0.69272675  0.58855393    -0.34700
N1075       N  0.15412916  0.70941801  0.58467112    -0.26900
C1076       C  0.14873718  0.71133693  0.55718429    -0.02100
C1077       C  0.16796676  0.69507352  0.54319730     0.06500
C1078       C  0.18496084  0.68354805  0.56352341     0.04600
H1079       H  0.13284831  0.72458972  0.54805435     0.09700
H1080       H  0.20310996  0.67043670  0.56037982     0.08500
N1081       N  0.87337600  0.23601916  0.87815923    -0.25900
N1082       N  0.86679991  0.20995078  0.87154310    -0.33700
C1083       C  0.88237663  0.19234995  0.88715064     0.02500
C1084       C  0.89942148  0.20826185  0.90425219     0.08500
C1085       C  0.89323354  0.23576449  0.89808038    -0.04600
H1086       H  0.88149804  0.16976423  0.88593337     0.09200
H1087       H  0.90260353  0.25422394  0.90718288     0.10400
Cu1088     Cu  0.83722659  0.19995705  0.84115347     0.44200
Cu1089     Cu  0.85551908  0.27085696  0.85960657     0.42000
Cu1090     Cu  0.80109725  0.25790885  0.80805055     0.43900
N1091       N  0.80702629  0.19527265  0.81007326    -0.33300
N1092       N  0.79361522  0.21635392  0.79813063    -0.27500
C1093       C  0.77563004  0.20619121  0.77893312    -0.03600
C1094       C  0.77797574  0.17738897  0.77882191     0.08600
C1095       C  0.79796046  0.17115438  0.79876845     0.02400
H1096       H  0.76199743  0.21881607  0.76597910     0.10000
H1097       H  0.80536029  0.15059519  0.80460819     0.09100
N1098       N  0.81453014  0.29748212  0.81960038    -0.34700
N1099       N  0.83450822  0.30211599  0.83820782    -0.26900
C1100       C  0.83910696  0.32980263  0.84003911    -0.02100
C1101       C  0.82116901  0.34304914  0.82174710     0.06500
C1102       C  0.80586093  0.32213145  0.80907747     0.04600
H1103       H  0.85467032  0.33945991  0.85330281     0.09700
H1104       H  0.79008956  0.32451937  0.79305709     0.08500
N1105       N  0.87819567  0.53453164  0.86495021    -0.25900
N1106       N  0.86833718  0.56031518  0.86316454    -0.33700
C1107       C  0.88191207  0.57649315  0.88192509     0.02500
C1108       C  0.90103557  0.55980637  0.89592456     0.08500
C1109       C  0.89814212  0.53345456  0.88468543    -0.04600
H1110       H  0.87784431  0.59848841  0.88539655     0.09200
H1111       H  0.90920426  0.51470901  0.89081671     0.10400
Cu1112     Cu  0.83622396  0.57063135  0.83543527     0.44200
Cu1113     Cu  0.86275572  0.50125794  0.84241020     0.42000
Cu1114     Cu  0.80614932  0.51173568  0.79471524     0.43900
N1115       N  0.80523183  0.57421459  0.80483758    -0.33300
N1116       N  0.79488240  0.55327636  0.78987966    -0.27500
C1117       C  0.77625111  0.56343624  0.77133191    -0.03600
C1118       C  0.77470341  0.59199817  0.77500700     0.08600
C1119       C  0.79327181  0.59817221  0.79626811     0.02400
H1120       H  0.76497866  0.55099424  0.75612916     0.10000
H1121       H  0.79821301  0.61867556  0.80443006     0.09100
N1122       N  0.82072375  0.47245180  0.80565165    -0.34700
N1123       N  0.84190495  0.46892349  0.82307389    -0.26900
C1124       C  0.84569809  0.44148251  0.82764553    -0.02100
C1125       C  0.82597415  0.42712285  0.81234844     0.06500
C1126       C  0.81036431  0.44719750  0.79860462     0.04600
H1127       H  0.86100720  0.43275685  0.84181798     0.09700
H1128       H  0.79240677  0.44382893  0.78529383     0.08500
N1129       N  0.88150410  0.74731420  0.35103409    -0.25900
N1130       N  0.86707426  0.74836122  0.32744923    -0.33700
C1131       C  0.87834199  0.76817538  0.31077118     0.02500
C1132       C  0.90082945  0.77991784  0.32475096     0.08500
C1133       C  0.90220779  0.76630406  0.35012794    -0.04600
H1134       H  0.87078587  0.77353036  0.29011832     0.09200
H1135       H  0.91708369  0.76995017  0.36676437     0.10400
Cu1136     Cu  0.83338994  0.72172511  0.31975914     0.44200
Cu1137     Cu  0.87238542  0.72048406  0.38368579     0.42000
Cu1138     Cu  0.81701038  0.67007768  0.37450927     0.43900
N1139       N  0.80409759  0.68961476  0.31579099    -0.33300
N1140       N  0.79893712  0.67025048  0.33493370    -0.27500
C1141       C  0.78124803  0.65109459  0.32411664    -0.03600
C1142       C  0.77478224  0.65902017  0.29704253     0.08600
C1143       C  0.78955002  0.68348262  0.29253959     0.02400
H1144       H  0.77418579  0.63248555  0.33493208     0.10000
H1145       H  0.79076373  0.69515927  0.27321170     0.09100
N1146       N  0.83775494  0.67623258  0.41223918    -0.34700
N1147       N  0.85826085  0.69457097  0.41527944    -0.26900
C1148       C  0.86611311  0.69528883  0.44226373    -0.02100
C1149       C  0.84980618  0.67650371  0.45684441     0.06500
C1150       C  0.83195067  0.66479021  0.43734870     0.04600
H1151       H  0.88151211  0.70947426  0.45081889     0.09700
H1152       H  0.81519873  0.65012749  0.44128064     0.08500
N1153       N  0.88547301  0.74938785  0.64636917    -0.25900
N1154       N  0.87335736  0.74944852  0.67124403    -0.33700
C1155       C  0.88544442  0.76938634  0.68719297     0.02500
C1156       C  0.90601038  0.78228432  0.67137798     0.08500
C1157       C  0.90544961  0.76916333  0.64570382    -0.04600
H1158       H  0.87954539  0.77424420  0.70849585     0.09200
H1159       H  0.91840205  0.77378355  0.62775779     0.10400
Cu1160     Cu  0.84055100  0.72237862  0.68100398     0.44200
Cu1161     Cu  0.87388517  0.72316003  0.61395553     0.42000
Cu1162     Cu  0.81518904  0.67719336  0.62368057     0.43900
N1163       N  0.80837908  0.69307839  0.68453004    -0.33300
N1164       N  0.79928519  0.67681118  0.66401064    -0.27500
C1165       C  0.77957641  0.65936033  0.67407926    -0.03600
C1166       C  0.77601023  0.66509243  0.70215412     0.08600
C1167       C  0.79459527  0.68641748  0.70811472     0.02400
H1168       H  0.76936950  0.64309891  0.66208684     0.10000
H1169       H  0.79858609  0.69563592  0.72837811     0.09100
N1170       N  0.83627146  0.68103240  0.58599461    -0.34700
N1171       N  0.85810633  0.69770459  0.58271185    -0.26900
C1172       C  0.86646347  0.69677724  0.55588321    -0.02100
C1173       C  0.84908545  0.67863034  0.54170923     0.06500
C1174       C  0.83008502  0.66902765  0.56125458     0.04600
H1175       H  0.88313462  0.70930975  0.54714606     0.09700
H1176       H  0.81251783  0.65527393  0.55760842     0.08500
N1177       N  0.35539055  0.74731408  0.88827202    -0.25900
N1178       N  0.33034290  0.74758605  0.87655295    -0.33700
C1179       C  0.31497367  0.76804973  0.88854175     0.02500
C1180       C  0.33136816  0.78104881  0.90863382     0.08500
C1181       C  0.35677769  0.76742195  0.90788635    -0.04600
H1182       H  0.29367392  0.77320553  0.88289592     0.09200
H1183       H  0.37504784  0.77196226  0.92040711     0.10400
Cu1184     Cu  0.31985655  0.71975276  0.84446014     0.44200
Cu1185     Cu  0.38691969  0.72038204  0.87622058     0.42000
Cu1186     Cu  0.37440917  0.66942711  0.82186355     0.43900
N1187       N  0.31487019  0.68915572  0.81355472    -0.33300
N1188       N  0.33416284  0.67079007  0.80585013    -0.27500
C1189       C  0.32320609  0.65336984  0.78658989    -0.03600
C1190       C  0.29585777  0.66132883  0.78177439     0.08600
C1191       C  0.29123406  0.68391293  0.79923980     0.02400
H1192       H  0.33409771  0.63576382  0.77739206     0.10000
H1193       H  0.27174826  0.69502691  0.80211511     0.09100
N1194       N  0.41326786  0.67602305  0.83983993    -0.34700
N1195       N  0.41749657  0.69467717  0.85983946    -0.26900
C1196       C  0.44489056  0.69568890  0.86589530    -0.02100
C1197       C  0.45847499  0.67677577  0.84895830     0.06500
C1198       C  0.43801093  0.66463525  0.83255981     0.04600
H1199       H  0.45429934  0.70997949  0.88068431     0.09700
H1200       H  0.44093976  0.64959885  0.81593465     0.08500
N1201       N  0.64669585  0.75172145  0.88322819    -0.25900
N1202       N  0.67128109  0.75211840  0.87050976    -0.33700
C1203       C  0.68698398  0.77273603  0.88176432     0.02500
C1204       C  0.67132963  0.78573393  0.90239468     0.08500
C1205       C  0.64600696  0.77193904  0.90276493    -0.04600
H1206       H  0.70805171  0.77792182  0.87531951     0.09200
H1207       H  0.62828825  0.77635945  0.91609632     0.10400
Cu1208     Cu  0.68126377  0.72447857  0.83814685     0.44200
Cu1209     Cu  0.61452511  0.72454249  0.87309969     0.42000
Cu1210     Cu  0.62593491  0.67488468  0.81804259     0.43900
N1211       N  0.68498611  0.69409266  0.80691603    -0.33300
N1212       N  0.66516103  0.67596549  0.80013516    -0.27500
C1213       C  0.67506449  0.65810156  0.78077292    -0.03600
C1214       C  0.70232912  0.66547130  0.77489664     0.08600
C1215       C  0.70799156  0.68827583  0.79180174     0.02400
H1216       H  0.66364810  0.64036527  0.77251538     0.10000
H1217       H  0.72785159  0.69884909  0.79405561     0.09100
N1218       N  0.58779852  0.67996274  0.83752470    -0.34700
N1219       N  0.58367525  0.69822037  0.85789064    -0.26900
C1220       C  0.55645359  0.69811496  0.86490097    -0.02100
C1221       C  0.54300474  0.67884490  0.84815641     0.06500
C1222       C  0.56331100  0.66771933  0.83094888     0.04600
H1223       H  0.54701838  0.71185605  0.88018709     0.09700
H1224       H  0.56039877  0.65277720  0.81422881     0.08500
C1225       C  0.22674834  0.62326955  0.73907767     0.03700
C1226       C  0.23873163  0.64811698  0.72861271     0.03700
C1227       C  0.26302194  0.65926055  0.74109386     0.03700
C1228       C  0.27416048  0.64662211  0.76535456     0.03700
C1229       C  0.26220245  0.62166062  0.77575972     0.03700
C1230       C  0.23763586  0.61091935  0.76353862     0.03700
C1231       C  0.73427831  0.62436806  0.77012250     0.03700
C1232       C  0.72332978  0.64941126  0.75894251     0.03700
C1233       C  0.73539828  0.66129249  0.73480644     0.03700
C1234       C  0.75963663  0.64928735  0.72305254     0.03700
C1235       C  0.77065664  0.62435935  0.73432587     0.03700
C1236       C  0.75873890  0.61269765  0.75862785     0.03700
C1237       C  0.73816900  0.62311186  0.22392720     0.03700
C1238       C  0.76020175  0.60902603  0.23754505     0.03700
C1239       C  0.77005972  0.61877941  0.26366772     0.03700
C1240       C  0.75901284  0.64363282  0.27521222     0.03700
C1241       C  0.73658726  0.65731747  0.26179243     0.03700
C1242       C  0.72729410  0.64803968  0.23535591     0.03700
C1243       C  0.76197044  0.12359732  0.72273899     0.03700
C1244       C  0.73637313  0.11262989  0.73262059     0.03700
C1245       C  0.72435468  0.12318811  0.75738485     0.03700
C1246       C  0.73680744  0.14604267  0.77117158     0.03700
C1247       C  0.76251258  0.15688717  0.76157883     0.03700
C1248       C  0.77449986  0.14636256  0.73671035     0.03700
N1249       N  0.12291462  0.23292638  0.87436711    -0.25900
N1250       N  0.13032175  0.20681465  0.86898383    -0.33700
C1251       C  0.11505455  0.18950582  0.88528698     0.02500
C1252       C  0.09736786  0.20574657  0.90152246     0.08500
C1253       C  0.10288877  0.23305735  0.89409264    -0.04600
H1254       H  0.11672777  0.16693121  0.88530882     0.09200
H1255       H  0.09312239  0.25168303  0.90240377     0.10400
Cu1256     Cu  0.16106553  0.19725005  0.83946055     0.44200
Cu1257     Cu  0.14034938  0.26740695  0.85494290     0.42000
Cu1258     Cu  0.19645669  0.25720344  0.80574163     0.43900
N1259       N  0.19195849  0.19416722  0.80869572    -0.33300
N1260       N  0.20474927  0.21561590  0.79664134    -0.27500
C1261       C  0.22295198  0.20592889  0.77740807    -0.03600
C1262       C  0.22142054  0.17710607  0.77737634     0.08600
C1263       C  0.20177260  0.17032508  0.79745550     0.02400
H1264       H  0.23616326  0.21890268  0.76436818     0.10000
H1265       H  0.19498936  0.14956582  0.80332626     0.09100
N1266       N  0.18096470  0.29628879  0.81632956    -0.34700
N1267       N  0.16014555  0.29979305  0.83421736    -0.26900
C1268       C  0.15391068  0.32715189  0.83588706    -0.02100
C1269       C  0.17164005  0.34143670  0.81820788     0.06500
C1270       C  0.18858351  0.32142039  0.80608065     0.04600
H1271       H  0.13744672  0.33588074  0.84869871     0.09700
H1272       H  0.20479117  0.32473524  0.79067460     0.08500
N1273       N  0.11111957  0.53290241  0.86296394    -0.25900
N1274       N  0.12190067  0.55838516  0.86195518    -0.33700
C1275       C  0.10862192  0.57460958  0.88087072     0.02500
C1276       C  0.08868831  0.55839021  0.89421680     0.08500
C1277       C  0.09082588  0.53215847  0.88241953    -0.04600
H1278       H  0.11352271  0.59632466  0.88497716     0.09200
H1279       H  0.07906746  0.51368403  0.88806137     0.10400
Cu1280     Cu  0.15516711  0.56882818  0.83561689     0.44200
Cu1281     Cu  0.12603925  0.49935045  0.84006527     0.42000
Cu1282     Cu  0.18866113  0.51031923  0.79951133     0.43900
N1283       N  0.18827107  0.57289258  0.80734880    -0.33300
N1284       N  0.20042117  0.55170287  0.79426385    -0.27500
C1285       C  0.22026432  0.56165496  0.77686687    -0.03600
C1286       C  0.22059667  0.59042639  0.77921652     0.08600
C1287       C  0.20013707  0.59687000  0.79863245     0.02400
H1288       H  0.23308862  0.54893875  0.76320937     0.10000
H1289       H  0.19397798  0.61752141  0.80548539     0.09100
N1290       N  0.17156375  0.47117736  0.80686518    -0.34700
N1291       N  0.14818947  0.46734265  0.82117245    -0.26900
C1292       C  0.14330636  0.43975614  0.82360622    -0.02100
C1293       C  0.16461162  0.42569079  0.81018280     0.06500
C1294       C  0.18224673  0.44607619  0.79981397     0.04600
H1295       H  0.12627770  0.43066956  0.83538818     0.09700
H1296       H  0.20182500  0.44296450  0.78895027     0.08500
C1297       C  0.26227571  0.14551030  0.77128346     0.03700
C1298       C  0.23746731  0.15695959  0.76032501     0.03700
C1299       C  0.22625505  0.14652372  0.73505526     0.03700
C1300       C  0.23846656  0.12290625  0.72216335     0.03700
C1301       C  0.26309467  0.11107316  0.73348378     0.03700
C1302       C  0.27443814  0.12187059  0.75858938     0.03700
C1303       C  0.23522882  0.61435567  0.23519197     0.03700
C1304       C  0.22292967  0.62493768  0.25977769     0.03700
C1305       C  0.23391499  0.64927966  0.27216748     0.03700
C1306       C  0.25836396  0.66174417  0.26133694     0.03700
C1307       C  0.27067946  0.65107584  0.23682449     0.03700
C1308       C  0.25981139  0.62664181  0.22445862     0.03700
C1309       C  0.72692329  0.12640102  0.23698068     0.03700
C1310       C  0.73774799  0.11389195  0.26132865     0.03700
C1311       C  0.76204864  0.12474538  0.27396975     0.03700
C1312       C  0.77426790  0.14949817  0.26356572     0.03700
C1313       C  0.76301341  0.16243204  0.23956556     0.03700
C1314       C  0.73872392  0.15147256  0.22695717     0.03700
N1315       N  0.12286189  0.00495183  0.35109124    -0.25900
N1316       N  0.12530533  0.01446207  0.32519228    -0.33700
C1317       C  0.10672245  0.00093010  0.30877821     0.02500
C1318       C  0.09208273  0.98218987  0.32530497     0.08500
C1319       C  0.10278984  0.98526914  0.35189838    -0.04600
H1320       H  0.10433789  0.00423611  0.28651469     0.09200
H1321       H  0.09676896  0.97377345  0.37041752     0.10400
Cu1322     Cu  0.15465703  0.04480950  0.31380296     0.44200
Cu1323     Cu  0.14745651  0.01777989  0.38439296     0.42000
Cu1324     Cu  0.20054312  0.06842877  0.37066725     0.43900
N1325       N  0.18662063  0.07435506  0.30932920    -0.33300
N1326       N  0.20304516  0.08279764  0.32998774    -0.27500
C1327       C  0.22178763  0.10131247  0.32006087    -0.03600
C1328       C  0.21688605  0.10477263  0.29186080     0.08600
C1329       C  0.19458893  0.08735996  0.28565787     0.02400
H1330       H  0.23808647  0.11109523  0.33236541     0.10000
H1331       H  0.18519174  0.08406081  0.26535083     0.09100
N1332       N  0.19473346  0.05070011  0.40964854    -0.34700
N1333       N  0.17504255  0.03194189  0.41466644    -0.26900
C1334       C  0.17585352  0.02485100  0.44186849    -0.02100
C1335       C  0.19709487  0.03986017  0.45440147     0.06500
C1336       C  0.20865227  0.05613690  0.43353497     0.04600
H1337       H  0.16160720  0.01041543  0.45186741     0.09700
H1338       H  0.22535188  0.07123364  0.43562192     0.08500
N1339       N  0.13238277  0.00251011  0.64385528    -0.25900
N1340       N  0.13316221  0.01452777  0.66877382    -0.33700
C1341       C  0.11357755  0.00255917  0.68522852     0.02500
C1342       C  0.10001670  0.98221379  0.66970067     0.08500
C1343       C  0.11239412  0.98273983  0.64366748    -0.04600
H1344       H  0.10956484  0.00823289  0.70676986     0.09200
H1345       H  0.10729685  0.96973469  0.62588238     0.10400
Cu1346     Cu  0.16129333  0.04654309  0.67837151     0.44200
Cu1347     Cu  0.15828785  0.01335043  0.61099801     0.42000
Cu1348     Cu  0.20993141  0.06708507  0.62240483     0.43900
N1349       N  0.19260517  0.07675900  0.68252385    -0.33300
N1350       N  0.21064269  0.08366270  0.66264928    -0.27500
C1351       C  0.22924487  0.10212709  0.67310008    -0.03600
C1352       C  0.22237163  0.10730209  0.70072576     0.08600
C1353       C  0.19912291  0.09088460  0.70597739     0.02400
H1354       H  0.24685510  0.11055542  0.66165535     0.10000
H1355       H  0.18854736  0.08839868  0.72580603     0.09100
N1356       N  0.20331515  0.04809950  0.58381416    -0.34700
N1357       N  0.18450018  0.02816349  0.58000718    -0.26900
C1358       C  0.18362301  0.02132702  0.55277001    -0.02100
C1359       C  0.20276633  0.03771259  0.53878688     0.06500
C1360       C  0.21489068  0.05458319  0.55891815     0.04600
H1361       H  0.16906626  0.00661184  0.54365709     0.09700
H1362       H  0.22990511  0.07115575  0.55559354     0.08500
C1363       C  0.26096972  0.15073206  0.22856212     0.03700
C1364       C  0.27174246  0.12510256  0.23841635     0.03700
C1365       C  0.25866801  0.11129788  0.26093181     0.03700
C1366       C  0.23316115  0.12163852  0.27169789     0.03700
C1367       C  0.22240791  0.14735424  0.26189551     0.03700
C1368       C  0.23559286  0.16119517  0.23942440     0.03700
C1369       C  0.20339058  0.04039964  0.48377557    -0.11900
C1370       C  0.20523129  0.03983596  0.50891794    -0.13400
C1371       C  0.17134650  0.37101478  0.81301816    -0.11900
C1372       C  0.16914127  0.39600491  0.81054019    -0.13400
C1373       C  0.48821588  0.67365525  0.84680007    -0.11900
C1374       C  0.51338500  0.67439735  0.84669516    -0.13400
C1375       C  0.84852831  0.67436106  0.51196480    -0.11900
C1376       C  0.84874240  0.67369283  0.48675175    -0.13400
C1377       C  0.82152741  0.39747248  0.81310549    -0.11900
C1378       C  0.82014663  0.37250205  0.81611651    -0.13400
C1379       C  0.17254486  0.69632851  0.48840574    -0.11900
C1380       C  0.17151591  0.69408561  0.51345593    -0.13400
C1381       C  0.78563528  0.03468855  0.48549436    -0.11900
C1382       C  0.78460192  0.03405251  0.51069801    -0.13400
C1383       C  0.85133349  0.39781387  0.20864363    -0.11900
C1384       C  0.85223270  0.37261414  0.20871372    -0.13400
C1385       C  0.48762526  0.71451650  0.18832787    -0.11900
C1386       C  0.51269169  0.71307858  0.18640714    -0.13400
C1387       C  0.48663278  0.03421512  0.78144187    -0.11900
C1388       C  0.51176646  0.03499196  0.78281129    -0.13400
C1389       C  0.48691585  0.08586482  0.16415358    -0.11900
C1390       C  0.51210062  0.08589645  0.16389989    -0.13400
C1391       C  0.19262916  0.37422598  0.16448159    -0.11900
C1392       C  0.19103582  0.39928168  0.16620319    -0.13400
C1393       C  0.32841075  0.19223833  0.98891523    -0.11900
C1394       C  0.32961400  0.19263758  0.01408053    -0.13400
C1395       C  0.98668267  0.16409377  0.35170693    -0.11900
C1396       C  0.01185512  0.16448789  0.35177905    -0.13400
C1397       C  0.28611756  0.89857175  0.34594145    -0.11900
C1398       C  0.28523196  0.87342827  0.34675895    -0.13400
C1399       C  0.34471987  0.58926117  0.98764630    -0.11900
C1400       C  0.34349924  0.58868309  0.01280425    -0.13400
C1401       C  0.69025075  0.21714596  0.98707158    -0.11900
C1402       C  0.68850791  0.21708668  0.01223219    -0.13400
C1403       C  0.34892773  0.89750886  0.71332505    -0.11900
C1404       C  0.34869771  0.87229292  0.71329818    -0.13400
C1405       C  0.98818117  0.23165459  0.71652878    -0.11900
C1406       C  0.01336226  0.23167832  0.71565933    -0.13400
C1407       C  0.66594383  0.87303453  0.30101087    -0.11900
C1408       C  0.66660989  0.89820339  0.30172689    -0.13400
C1409       C  0.00940373  0.54153542  0.29428247    -0.11900
C1410       C  0.98423410  0.54031137  0.29380277    -0.13400
C1411       C  0.65460830  0.59466305  0.00982399    -0.11900
C1412       C  0.65491876  0.59392482  0.98463546    -0.13400
C1413       C  0.98677130  0.54966404  0.69975583    -0.11900
C1414       C  0.01196265  0.54947737  0.69963398    -0.13400
C1415       C  0.70875958  0.89962366  0.64990170    -0.11900
C1416       C  0.70757526  0.87448352  0.65091313    -0.13400
C1417       C  0.93584679  0.82062686  0.31166357    -0.11900
C1418       C  0.91917875  0.80205447  0.31569991    -0.13400
C1419       C  0.05646297  0.82484250  0.31262687    -0.11900
C1420       C  0.07458795  0.80783412  0.31684250    -0.13400
C1421       C  0.91437034  0.95850183  0.31612355    -0.11900
C1422       C  0.93242384  0.94135762  0.31210767    -0.13400
C1423       C  0.05304168  0.94490072  0.31316400    -0.11900
C1424       C  0.07080520  0.96247833  0.31703315    -0.13400
C1425       C  0.94050232  0.82412857  0.68243459    -0.11900
C1426       C  0.92415678  0.80511804  0.67908660    -0.13400
C1427       C  0.91842748  0.96192890  0.67650936    -0.11900
C1428       C  0.93713285  0.94532951  0.68043078    -0.13400
C1429       C  0.07780587  0.80863188  0.68126473    -0.11900
C1430       C  0.06045731  0.82683151  0.68408626    -0.13400
C1431       C  0.05905360  0.94716605  0.68200371    -0.11900
C1432       C  0.07763618  0.96387372  0.67816816    -0.13400
C1433       C  0.32439407  0.80446412  0.92640237    -0.11900
C1434       C  0.32110807  0.82398199  0.94219276    -0.13400
C1435       C  0.31795323  0.81545481  0.08137662    -0.11900
C1436       C  0.31500783  0.83191292  0.06238322    -0.13400
C1437       C  0.32097904  0.94523677  0.93439614    -0.11900
C1438       C  0.32438587  0.96136212  0.91519384    -0.13400
C1439       C  0.31438321  0.95232736  0.05501775    -0.11900
C1440       C  0.31698415  0.97105290  0.07180333    -0.13400
C1441       C  0.93812131  0.19423768  0.94109419    -0.11900
C1442       C  0.92009284  0.19878690  0.92399764    -0.13400
C1443       C  0.05950431  0.19314877  0.93983555    -0.11900
C1444       C  0.07715261  0.19691097  0.92210695    -0.13400
C1445       C  0.92499323  0.20006563  0.08178327    -0.11900
C1446       C  0.94066499  0.19553671  0.06248430    -0.13400
C1447       C  0.07720659  0.19948010  0.07831898    -0.11900
C1448       C  0.05962120  0.19479905  0.06080243    -0.13400
C1449       C  0.67901404  0.80894105  0.92009753    -0.11900
C1450       C  0.68250599  0.82795900  0.93641726    -0.13400
C1451       C  0.67907496  0.96373621  0.91621888    -0.11900
C1452       C  0.68262016  0.94810861  0.93578045    -0.13400
C1453       C  0.68205354  0.80728600  0.07198419    -0.11900
C1454       C  0.68494661  0.82601100  0.05523137    -0.13400
C1455       C  0.68477270  0.94813731  0.05826084    -0.11900
C1456       C  0.68161591  0.96613397  0.07580847    -0.13400
C1457       C  0.93584053  0.57005413  0.93757553    -0.11900
C1458       C  0.91943159  0.56714647  0.91859603    -0.13400
C1459       C  0.93727035  0.57113430  0.06051204    -0.11900
C1460       C  0.92130473  0.56749727  0.07977478    -0.13400
C1461       C  0.07042794  0.56610045  0.91694292    -0.11900
C1462       C  0.05424896  0.56967992  0.93604086    -0.13400
C1463       C  0.05680944  0.57203454  0.05775743    -0.11900
C1464       C  0.07473860  0.56902819  0.07527071    -0.13400
C1465       C  0.44025071  0.32209016  0.81540474    -0.11900
C1466       C  0.42256549  0.30439980  0.81898943    -0.13400
C1467       C  0.57960339  0.30809428  0.81609279    -0.11900
C1468       C  0.56117755  0.32509244  0.81325817    -0.13400
C1469       C  0.43887679  0.44359025  0.81647157    -0.11900
C1470       C  0.42271058  0.46263153  0.82003479    -0.13400
C1471       C  0.55800151  0.44576525  0.81491468    -0.11900
C1472       C  0.57476381  0.46438870  0.81828604    -0.13400
C1473       C  0.42568321  0.30697903  0.18628465    -0.11900
C1474       C  0.44224665  0.32566436  0.19052408    -0.13400
C1475       C  0.42012458  0.46561212  0.18497421    -0.11900
C1476       C  0.43731705  0.44747192  0.18867201    -0.13400
C1477       C  0.58071677  0.31434557  0.18640578    -0.11900
C1478       C  0.56258126  0.33153800  0.19014875    -0.13400
C1479       C  0.55664561  0.45293099  0.18636001    -0.11900
C1480       C  0.57280510  0.47179988  0.18142910    -0.13400
C1481       C  0.82199697  0.31892744  0.44569828    -0.11900
C1482       C  0.82566953  0.29990738  0.42949023    -0.13400
C1483       C  0.82627268  0.31240167  0.58578492    -0.11900
C1484       C  0.82294607  0.32838862  0.56645878    -0.13400
C1485       C  0.81479763  0.43699867  0.43498593    -0.11900
C1486       C  0.81722463  0.45158092  0.41452136    -0.13400
C1487       C  0.81612307  0.44768393  0.55753102    -0.11900
C1488       C  0.81918306  0.46517552  0.57550939    -0.13400
C1489       C  0.43379337  0.70309381  0.43988117    -0.11900
C1490       C  0.41431165  0.70669292  0.42416732    -0.13400
C1491       C  0.55633738  0.70200918  0.43699325    -0.11900
C1492       C  0.57404207  0.70505364  0.41919400    -0.13400
C1493       C  0.43731195  0.70420993  0.55971682    -0.11900
C1494       C  0.42069007  0.70747339  0.57851687    -0.13400
C1495       C  0.55820290  0.70393577  0.55699208    -0.11900
C1496       C  0.57653775  0.70764226  0.57401349    -0.13400
C1497       C  0.17292980  0.30456237  0.42465019    -0.11900
C1498       C  0.17649982  0.32367843  0.44085030    -0.13400
C1499       C  0.17947291  0.46143536  0.41774178    -0.11900
C1500       C  0.18250204  0.44471622  0.43651127    -0.13400
C1501       C  0.17799023  0.32798260  0.56166293    -0.11900
C1502       C  0.17494679  0.31147765  0.58062552    -0.13400
C1503       C  0.18104019  0.46416435  0.57740837    -0.11900
C1504       C  0.18381533  0.44737611  0.55869202    -0.13400
C1505       C  0.43492194  0.06932858  0.43922500    -0.11900
C1506       C  0.41613895  0.06588144  0.42266625    -0.13400
C1507       C  0.44118589  0.06575818  0.56022029    -0.11900
C1508       C  0.42547006  0.06159858  0.57954800    -0.13400
C1509       C  0.55587519  0.07288085  0.43410046    -0.11900
C1510       C  0.57287684  0.06949598  0.41571830    -0.13400
C1511       C  0.58109361  0.06663466  0.56935461    -0.11900
C1512       C  0.56163859  0.06998981  0.55359737    -0.13400
loop_ 
_geom_bond_atom_site_label_1 
_geom_bond_atom_site_label_2 
_geom_bond_distance 
_geom_bond_site_symmetry_2 
_ccdc_geom_bond_type 
O1           Cu9   2.024       .  S
O1           C11   1.278       .  A
O2           Cu9   2.023       .  S
O2           C12   1.278       .  A
O3           Cu9   2.020       .  S
O3           C13   1.278       .  A
O4           Cu9   2.021       .  S
O4           C14   1.278       .  A
O5          Cu10   2.007       .  S
O5           C14   1.276       .  A
O6          Cu10   2.006       .  S
O6           C13   1.276       .  A
O7          Cu10   2.003       .  S
O7           C12   1.275       .  A
O8          Cu10   2.002       .  S
O8           C11   1.276       .  A
Cu9         Cu10   2.379       .  S
C11        C1509   1.438       .  S
C12        C1507   1.437       .  S
C13        C1512   1.437       .  S
C14        C1505   1.439       .  S
O15         Cu23   2.024       .  S
O15          C25   1.278       .  A
O16         Cu23   2.026       .  S
O16          C26   1.278       .  A
O17         Cu23   2.023       .  S
O17          C27   1.278       .  A
O18         Cu23   2.023       .  S
O18          C28   1.278       .  A
O19         Cu24   2.011       .  S
O19          C28   1.277       .  A
O20         Cu24   2.009       .  S
O20          C27   1.276       .  A
O21         Cu24   2.012       .  S
O21          C26   1.277       .  A
O22         Cu24   2.014       .  S
O22          C25   1.277       .  A
Cu23        Cu24   2.377       .  S
C25        C1501   1.442       .  S
C26        C1500   1.442       .  S
C27        C1504   1.440       .  S
C28        C1498   1.441       .  S
O29         Cu37   2.025       .  S
O29          C39   1.278       .  A
O30         Cu37   2.025       .  S
O30          C40   1.278       .  A
O31         Cu37   2.022       .  S
O31          C41   1.278       .  A
O32         Cu37   2.023       .  S
O32          C42   1.278       .  A
O33         Cu38   2.011       .  S
O33          C42   1.277       .  A
O34         Cu38   2.010       .  S
O34          C41   1.277       .  A
O35         Cu38   2.005       .  S
O35          C40   1.276       .  A
O36         Cu38   2.006       .  S
O36          C39   1.276       .  A
Cu37        Cu38   2.378       .  S
C39        C1495   1.440       .  S
C40        C1489   1.439       .  S
C41        C1491   1.440       .  S
C42        C1493   1.441       .  S
O43         Cu51   2.005       .  S
O43          C53   1.276       .  A
O44         Cu51   2.006       .  S
O44          C54   1.276       .  A
O45         Cu51   2.011       .  S
O45          C55   1.277       .  A
O46         Cu51   2.005       .  S
O46          C56   1.276       .  A
O47         Cu52   2.018       .  S
O47          C56   1.277       .  A
O48         Cu52   2.021       .  S
O48          C55   1.278       .  A
O49         Cu52   2.022       .  S
O49          C54   1.278       .  A
O50         Cu52   2.020       .  S
O50          C53   1.278       .  A
Cu51        Cu52   2.379       .  S
C53        C1481   1.437       .  S
C54        C1487   1.438       .  S
C55        C1484   1.441       .  S
C56        C1485   1.436       .  S
O57         Cu65   2.034       .  S
O57          C67   1.280       .  A
O58         Cu65   2.035       .  S
O58          C68   1.280       .  A
O59         Cu65   2.020       .  S
O59          C69   1.277       .  A
O60         Cu65   2.019       .  S
O60          C70   1.277       .  A
O61         Cu66   2.007       .  S
O61          C70   1.276       .  A
O62         Cu66   2.007       .  S
O62          C69   1.276       .  A
O63         Cu66   2.003       .  S
O63          C68   1.275       .  A
O64         Cu66   2.004       .  S
O64          C67   1.275       .  A
Cu65        Cu66   2.378       .  S
C67        C1479   1.442       .  S
C68        C1474   1.442       .  S
C69        C1478   1.438       .  S
C70        C1476   1.438       .  S
O71         Cu79   2.023       .  S
O71          C81   1.278       .  A
O72         Cu79   2.022       .  S
O72          C82   1.278       .  A
O73         Cu79   2.015       .  S
O73          C83   1.277       .  A
O74         Cu79   2.015       .  S
O74          C84   1.277       .  A
O75         Cu80   2.004       .  S
O75          C84   1.276       .  A
O76         Cu80   2.004       .  S
O76          C83   1.276       .  A
O77         Cu80   2.006       .  S
O77          C82   1.276       .  A
O78         Cu80   2.006       .  S
O78          C81   1.276       .  A
Cu79        Cu80   2.379       .  S
C81        C1471   1.439       .  S
C82        C1465   1.438       .  S
C83        C1469   1.435       .  S
C84        C1468   1.435       .  S
O85         Cu93   2.005   1_554  S
O85          C95   1.276       .  A
O86         Cu93   2.006   1_455  S
O86          C96   1.276       .  A
O87         Cu93   2.007   1_454  S
O87          C97   1.277       .  A
O88         Cu93   2.009       .  S
O88          C98   1.277       .  A
O89         Cu94   2.015       .  S
O89          C98   1.277       .  A
O90         Cu94   2.015   1_454  S
O90          C97   1.277       .  A
O91         Cu94   2.024   1_455  S
O91          C96   1.278       .  A
O92         Cu94   2.025   1_554  S
O92          C95   1.278       .  A
Cu93        Cu94   2.379       .  S
C95        C1459   1.439       .  S
C96        C1462   1.439       .  S
C97        C1463   1.436       .  S
C98        C1457   1.437       .  S
O99        Cu107   2.021   1_554  S
O99         C109   1.277       .  A
O100       Cu107   2.022       .  S
O100        C110   1.278       .  A
O101       Cu107   2.028   1_554  S
O101        C111   1.278       .  A
O102       Cu107   2.024       .  S
O102        C112   1.278       .  A
O103       Cu108   2.009       .  S
O103        C112   1.276       .  A
O104       Cu108   2.012   1_554  S
O104        C111   1.277       .  A
O105       Cu108   2.009       .  S
O105        C110   1.276       .  A
O106       Cu108   2.010   1_554  S
O106        C109   1.277       .  A
Cu107      Cu108   2.377       .  S
C109       C1454   1.440       .  S
C110       C1452   1.440       .  S
C111       C1455   1.443       .  S
C112       C1450   1.441       .  S
O113       Cu121   2.000   1_455  S
O113        C123   1.275       .  A
O114       Cu121   2.000   1_556  S
O114        C124   1.275       .  A
O115       Cu121   2.003       .  S
O115        C125   1.275       .  A
O116       Cu121   2.006   1_456  S
O116        C126   1.276       .  A
O117       Cu122   2.026   1_456  S
O117        C126   1.278       .  A
O118       Cu122   2.024       .  S
O118        C125   1.278       .  A
O119       Cu122   2.025   1_556  S
O119        C124   1.278       .  A
O120       Cu122   2.024   1_455  S
O120        C123   1.278       .  A
Cu121      Cu122   2.378       .  S
C123       C1448   1.437       .  S
C124       C1441   1.437       .  S
C125       C1446   1.438       .  S
C126       C1443   1.440       .  S
O127       Cu135   2.014       .  S
O127        C137   1.277       .  A
O128       Cu135   2.010   1_554  S
O128        C138   1.277       .  A
O129       Cu135   2.009   1_554  S
O129        C139   1.276       .  A
O130       Cu135   2.011       .  S
O130        C140   1.276       .  A
O131       Cu136   2.024       .  S
O131        C140   1.278       .  A
O132       Cu136   2.025   1_554  S
O132        C139   1.278       .  A
O133       Cu136   2.021   1_554  S
O133        C138   1.277       .  A
O134       Cu136   2.023       .  S
O134        C137   1.278       .  A
Cu135      Cu136   2.377       .  S
C137       C1434   1.442       .  S
C138       C1439   1.439       .  S
C139       C1436   1.441       .  S
C140       C1437   1.441       .  S
O141       Cu149   2.024   1_455  S
O141        C151   1.278       .  A
O142       Cu149   2.024       .  S
O142        C152   1.278       .  A
O143       Cu149   2.025   1_455  S
O143        C153   1.278       .  A
O144       Cu149   2.026       .  S
O144        C154   1.278       .  A
O145       Cu150   2.009       .  S
O145        C154   1.276       .  A
O146       Cu150   2.009   1_455  S
O146        C153   1.276       .  A
O147       Cu150   2.008       .  S
O147        C152   1.276       .  A
O148       Cu150   2.006   1_455  S
O148        C151   1.276       .  A
Cu149      Cu150   2.378       .  S
C151       C1431   1.439       .  S
C152       C1425   1.440       .  S
C153       C1430   1.441       .  S
C154       C1428   1.442       .  S
O155       Cu163   2.025   1_455  S
O155        C165   1.278       .  A
O156       Cu163   2.025       .  S
O156        C166   1.278       .  A
O157       Cu163   2.017       .  S
O157        C167   1.277       .  A
O158       Cu163   2.017   1_455  S
O158        C168   1.277       .  A
O159       Cu164   1.998   1_455  S
O159        C168   1.275       .  A
O160       Cu164   1.998       .  S
O160        C167   1.275       .  A
O161       Cu164   2.004       .  S
O161        C166   1.276       .  A
O162       Cu164   2.005   1_455  S
O162        C165   1.276       .  A
Cu163      Cu164   2.379       .  S
C165       C1423   1.439       .  S
C166       C1417   1.439       .  S
C167       C1422   1.434       .  S
C168       C1419   1.433       .  S
N169        N170   1.322       .  A
N169        C173   1.343       .  A
N169       Cu177   2.064       .  S
N170        C171   1.350       .  A
N170       Cu176   2.088       .  S
C171        C172   1.385       .  A
C171        H174   1.082       .  S
C172       C1496   1.441       .  S
C172        C173   1.378       .  A
C173        H175   1.081       .  S
Cu176       N179   2.089       .  S
Cu177       N187   2.064       .  S
Cu178       N180   2.072       .  S
Cu178       N186   2.071       .  S
N179        N180   1.325       .  A
N179        C183   1.344       .  A
N180        C181   1.347       .  A
C181        C182   1.380       .  A
C181        H184   1.081       .  S
C182        C183   1.382       .  A
C182       C1233   1.478       .  S
C183        H185   1.081       .  S
N186        N187   1.322       .  A
N186        C190   1.347       .  A
N187        C188   1.342       .  A
C188        C189   1.377       .  A
C188        H191   1.081       .  S
C189       C1416   1.433       .  S
C189        C190   1.381       .  A
C190        H192   1.080       .  S
N193        N194   1.322       .  A
N193        C197   1.344       .  A
N193       Cu201   2.067       .  S
N194        C195   1.348       .  A
N194       Cu200   2.078       .  S
C195        C196   1.383       .  A
C195        H198   1.082       .  S
C196       C1511   1.439       .  S
C196        C197   1.378       .  A
C197        H199   1.080       .  S
Cu200       N203   2.079       .  S
Cu201       N211   2.067   1_545  S
Cu202       N204   2.069       .  S
Cu202       N210   2.068   1_545  S
N203        N204   1.324       .  A
N203        C207   1.343       .  A
N204        C205   1.346       .  A
C205        C206   1.379       .  A
C205        H208   1.082       .  S
C206        C207   1.380       .  A
C206       C1244   1.473       .  S
C207        H209   1.081       .  S
N210        N211   1.322       .  A
N210        C214   1.346       .  A
N211        C212   1.343       .  A
C212        C213   1.378       .  A
C212        H215   1.081       .  S
C213       C1415   1.433       .  S
C213        C214   1.380       .  A
C214        H216   1.080       .  S
N217        N218   1.322       .  A
N217        C221   1.343       .  A
N217       Cu225   2.063       .  S
N218        C219   1.349       .  A
N218       Cu224   2.083       .  S
C219        C220   1.384       .  A
C219        H222   1.082       .  S
C220       C1488   1.440       .  S
C220        C221   1.378       .  A
C221        H223   1.081       .  S
Cu224       N227   2.084       .  S
Cu225       N235   2.064       .  S
Cu226       N228   2.074       .  S
Cu226       N234   2.073       .  S
N227        N228   1.325       .  A
N227        C231   1.343       .  A
N228        C229   1.347       .  A
C229        C230   1.380       .  A
C229        H232   1.082       .  S
C230        C231   1.381       .  A
C230       C1235   1.477       .  S
C231        H233   1.081       .  S
N234        N235   1.323       .  A
N234        C238   1.347       .  A
N235        C236   1.342       .  A
C236        C237   1.376       .  A
C236        H239   1.081       .  S
C237       C1413   1.434       .  S
C237        C238   1.381       .  A
C238        H240   1.080       .  S
N241        N242   1.323       .  A
N241        C245   1.343       .  A
N241       Cu249   2.065       .  S
N242        C243   1.351       .  A
N242       Cu248   2.092       .  S
C243        C244   1.385       .  A
C243        H246   1.082       .  S
C244       C1503   1.442       .  S
C244        C245   1.377       .  A
C245        H247   1.081       .  S
Cu248       N251   2.093       .  S
Cu249       N259   2.065       .  S
Cu250       N252   2.073       .  S
Cu250       N258   2.072       .  S
N251        N252   1.324       .  A
N251        C255   1.345       .  A
N252        C253   1.348       .  A
C253        C254   1.381       .  A
C253        H256   1.082       .  S
C254        C255   1.383       .  A
C254       C1225   1.480       .  S
C255        H257   1.081       .  S
N258        N259   1.322       .  A
N258        C262   1.346       .  A
N259        C260   1.343       .  A
C260        C261   1.378       .  A
C260        H263   1.081       .  S
C261       C1414   1.434       .  S
C261        C262   1.380       .  A
C262        H264   1.080       .  S
N265        N266   1.322       .  A
N265        C269   1.343       .  A
N265       Cu273   2.063       .  S
N266        C267   1.350       .  A
N266       Cu272   2.089       .  S
C267        C268   1.385       .  A
C267        H270   1.081       .  S
C268       C1472   1.441       .  S
C268        C269   1.377       .  A
C269        H271   1.081       .  S
Cu272       N275   2.090       .  S
Cu273       N283   2.063       .  S
Cu274       N276   2.073       .  S
Cu274       N282   2.073       .  S
N275        N276   1.325       .  A
N275        C279   1.345       .  A
N276        C277   1.347       .  A
C277        C278   1.380       .  A
C277        H280   1.083       .  S
C278        C279   1.383       .  A
C278       C1231   1.479       .  S
C279        H281   1.081       .  S
N282        N283   1.322       .  A
N282        C286   1.347       .  A
N283        C284   1.342       .  A
C284        C285   1.377       .  A
C284        H287   1.081       .  S
C285       C1412   1.434       .  S
C285        C286   1.381       .  A
C286        H288   1.080       .  S
N289        N290   1.322       .  A
N289        C293   1.346       .  A
N289       Cu297   2.076       .  S
N290        C291   1.349       .  A
N290       Cu296   2.081       .  S
C291        C292   1.384       .  A
C291        H294   1.082       .  S
C292       C1480   1.444       .  S
C292        C293   1.382       .  A
C293        H295   1.081       .  S
Cu296       N299   2.082       .  S
Cu297       N307   2.075       .  S
Cu298       N300   2.073       .  S
Cu298       N306   2.073       .  S
N299        N300   1.324       .  A
N299        C303   1.342       .  A
N300        C301   1.348       .  A
C301        C302   1.382       .  A
C301        H304   1.082       .  S
C302        C303   1.380       .  A
C302       C1237   1.479       .  S
C303        H305   1.081       .  S
N306        N307   1.324       .  A
N306        C310   1.347       .  A
N307        C308   1.344       .  A
C308        C309   1.378       .  A
C308        H311   1.081       .  S
C309       C1411   1.435       .  S
C309        C310   1.380       .  A
C310        H312   1.080       .  S
N313        N314   1.322       .  A
N313        C317   1.343       .  A
N313       Cu321   2.066       .  S
N314        C315   1.348       .  A
N314       Cu320   2.079       .  S
C315        C316   1.382       .  A
C315        H318   1.082       .  S
C316       C1486   1.438       .  S
C316        C317   1.378       .  A
C317        H319   1.081       .  S
Cu320       N323   2.081       .  S
Cu321       N331   2.067       .  S
Cu322       N324   2.072       .  S
Cu322       N330   2.072       .  S
N323        N324   1.324       .  A
N323        C327   1.344       .  A
N324        C325   1.346       .  A
C325        C326   1.380       .  A
C325        H328   1.082       .  S
C326        C327   1.382       .  A
C326       C1239   1.476       .  S
C327        H329   1.081       .  S
N330        N331   1.323       .  A
N330        C334   1.346       .  A
N331        C332   1.343       .  A
C332        C333   1.378       .  A
C332        H335   1.081       .  S
C333       C1410   1.435       .  S
C333        C334   1.380       .  A
C334        H336   1.080       .  S
N337        N338   1.322       .  A
N337        C341   1.343       .  A
N337       Cu345   2.063       .  S
N338        C339   1.351       .  A
N338       Cu344   2.094       .  S
C339        C340   1.387       .  A
C339        H342   1.082       .  S
C340       C1499   1.443       .  S
C340        C341   1.377       .  A
C341        H343   1.081       .  S
Cu344       N347   2.095       .  S
Cu345       N355   2.063       .  S
Cu346       N348   2.080       .  S
Cu346       N354   2.079       .  S
N347        N348   1.325       .  A
N347        C351   1.345       .  A
N348        C349   1.349       .  A
C349        C350   1.382       .  A
C349        H352   1.082       .  S
C350        C351   1.383       .  A
C350       C1304   1.482       .  S
C351        H353   1.080       .  S
N354        N355   1.323       .  A
N354        C358   1.348       .  A
N355        C356   1.343       .  A
C356        C357   1.376       .  A
C356        H359   1.081       .  S
C357       C1409   1.435       .  S
C357        C358   1.382       .  A
C358        H360   1.080       .  S
N361        N362   1.322       .  A
N361        C365   1.343       .  A
N361       Cu369   2.062       .  S
N362        C363   1.350       .  A
N362       Cu368   2.091       .  S
C363        C364   1.386       .  A
C363        H366   1.082       .  S
C364       C1492   1.441       .  S
C364        C365   1.377       .  A
C365        H367   1.081       .  S
Cu368       N371   2.093       .  S
Cu369       N379   2.062       .  S
Cu370       N372   2.069       .  S
Cu370       N378   2.068       .  S
N371        N372   1.325       .  A
N371        C375   1.345       .  A
N372        C373   1.347       .  A
C373        C374   1.379       .  A
C373        H376   1.082       .  S
C374        C375   1.383       .  A
C374       C1241   1.479       .  S
C375        H377   1.080       .  S
N378        N379   1.322       .  A
N378        C382   1.347       .  A
N379        C380   1.342       .  A
C380        C381   1.377       .  A
C380        H383   1.081       .  S
C381       C1407   1.433       .  S
C381        C382   1.381       .  A
C382        H384   1.080       .  S
N385        N386   1.322       .  A
N385        C389   1.343       .  A
N385       Cu393   2.067       .  S
N386        C387   1.349       .  A
N386       Cu392   2.081       .  S
C387        C388   1.383       .  A
C387        H390   1.082       .  S
C388       C1510   1.440       .  S
C388        C389   1.378       .  A
C389        H391   1.081       .  S
Cu392       N395   2.082       .  S
Cu393       N403   2.068   1_545  S
Cu394       N396   2.069       .  S
Cu394       N402   2.069   1_545  S
N395        N396   1.324       .  A
N395        C399   1.343       .  A
N396        C397   1.347       .  A
C397        C398   1.379       .  A
C397        H400   1.081       .  S
C398        C399   1.380       .  A
C398       C1310   1.474       .  S
C399        H401   1.080       .  S
N402        N403   1.323       .  A
N402        C406   1.347       .  A
N403        C404   1.343       .  A
C404        C405   1.377       .  A
C404        H407   1.081       .  S
C405       C1408   1.433       .  S
C405        C406   1.380       .  A
C406        H408   1.080       .  S
N409        N410   1.322       .  A
N409        C413   1.344       .  A
N409       Cu417   2.068       .  S
N410        C411   1.350       .  A
N410       Cu416   2.087       .  S
C411        C412   1.385       .  A
C411        H414   1.082       .  S
C412       C1483   1.442       .  S
C412        C413   1.379       .  A
C413        H415   1.081       .  S
Cu416       N419   2.088       .  S
Cu417       N427   2.068       .  S
Cu418       N420   2.070       .  S
Cu418       N426   2.069       .  S
N419        N420   1.325       .  A
N419        C423   1.343       .  A
N420        C421   1.347       .  A
C421        C422   1.380       .  A
C421        H424   1.082       .  S
C422        C423   1.381       .  A
C422       C1248   1.477       .  S
C423        H425   1.081       .  S
N426        N427   1.322       .  A
N426        C430   1.347       .  A
N427        C428   1.343       .  A
C428        C429   1.378       .  A
C428        H431   1.081       .  S
C429       C1405   1.434       .  S
C429        C430   1.381       .  A
C430        H432   1.080       .  S
N433        N434   1.323       .  A
N433        C437   1.344       .  A
N433       Cu441   2.066       .  S
N434        C435   1.351       .  A
N434       Cu440   2.096       .  S
C435        C436   1.386       .  A
C435        H438   1.082       .  S
C436       C1502   1.444       .  S
C436        C437   1.378       .  A
C437        H439   1.081       .  S
Cu440       N443   2.097       .  S
Cu441       N451   2.065       .  S
Cu442       N444   2.070       .  S
Cu442       N450   2.070       .  S
N443        N444   1.324       .  A
N443        C447   1.346       .  A
N444        C445   1.347       .  A
C445        C446   1.380       .  A
C445        H448   1.082       .  S
C446        C447   1.385       .  A
C446       C1299   1.481       .  S
C447        H449   1.081       .  S
N450        N451   1.322       .  A
N450        C454   1.347       .  A
N451        C452   1.343       .  A
C452        C453   1.378       .  A
C452        H455   1.081       .  S
C453       C1406   1.434       .  S
C453        C454   1.381       .  A
C454        H456   1.080       .  S
N457        N458   1.322       .  A
N457        C461   1.343       .  A
N457       Cu465   2.063       .  S
N458        C459   1.351       .  A
N458       Cu464   2.093       .  S
C459        C460   1.386       .  A
C459        H462   1.082       .  S
C460       C1494   1.443       .  S
C460        C461   1.377       .  A
C461        H463   1.081       .  S
Cu464       N467   2.095       .  S
Cu465       N475   2.063       .  S
Cu466       N468   2.077       .  S
Cu466       N474   2.076       .  S
N467        N468   1.325       .  A
N467        C471   1.345       .  A
N468        C469   1.348       .  A
C469        C470   1.381       .  A
C469        H472   1.082       .  S
C470        C471   1.383       .  A
C470       C1227   1.482       .  S
C471        H473   1.080       .  S
N474        N475   1.322       .  A
N474        C478   1.348       .  A
N475        C476   1.343       .  A
C476        C477   1.377       .  A
C476        H479   1.081       .  S
C477       C1404   1.435       .  S
C477        C478   1.382       .  A
C478        H480   1.080       .  S
N481        N482   1.322       .  A
N481        C485   1.344       .  A
N481       Cu489   2.068   1_545  S
N482        C483   1.347       .  A
N482       Cu488   2.077       .  S
C483        C484   1.382       .  A
C483        H486   1.082       .  S
C484       C1508   1.439       .  S
C484        C485   1.379       .  A
C485        H487   1.081       .  S
Cu488       N491   2.078       .  S
Cu489       N499   2.068       .  S
Cu490       N492   2.078       .  S
Cu490       N498   2.078   1_545  S
N491        N492   1.323       .  A
N491        C495   1.344       .  A
N492        C493   1.348       .  A
C493        C494   1.383       .  A
C493        H496   1.082       .  S
C494        C495   1.381       .  A
C494       C1301   1.479       .  S
C495        H497   1.081       .  S
N498        N499   1.323       .  A
N498        C502   1.347       .  A
N499        C500   1.343       .  A
C500        C501   1.378       .  A
C500        H503   1.081       .  S
C501       C1403   1.436       .  S
C501        C502   1.381       .  A
C502        H504   1.080       .  S
N505        N506   1.321       .  A
N505        C509   1.341       .  A
N505       Cu513   2.058       .  S
N506        C507   1.349       .  A
N506       Cu512   2.079       .  S
C507        C508   1.384       .  A
C507        H510   1.082       .  S
C508       C1467   1.436       .  S
C508        C509   1.376       .  A
C509        H511   1.081       .  S
Cu512       N515   2.082       .  S
Cu513       N523   2.058       .  S
Cu514       N516   2.080       .  S
Cu514       N522   2.079       .  S
N515        N516   1.326       .  A
N515        C519   1.343       .  A
N516        C517   1.348       .  A
C517        C518   1.380       .  A
C517        H520   1.081       .  S
C518        C519   1.380       .  A
C518       C1246   1.476       .  S
C519        H521   1.081       .  S
N522        N523   1.321       .  A
N522        C526   1.348       .  A
N523        C524   1.342       .  A
C524        C525   1.376       .  A
C524        H527   1.081       .  S
C525       C1401   1.436       .  S
C525        C526   1.383       .  A
C526        H528   1.080       .  S
N529        N530   1.323       .  A
N529        C533   1.343       .  A
N529       Cu537   2.069       .  S
N530        C531   1.350       .  A
N530       Cu536   2.082       .  S
C531        C532   1.384       .  A
C531        H534   1.082       .  S
C532       C1477   1.440       .  S
C532        C533   1.378       .  A
C533        H535   1.080       .  S
Cu536       N539   2.083       .  S
Cu537       N547   2.070       .  S
Cu538       N540   2.070       .  S
Cu538       N546   2.070       .  S
N539        N540   1.324       .  A
N539        C543   1.343       .  A
N540        C541   1.347       .  A
C541        C542   1.379       .  A
C541        H544   1.082       .  S
C542        C543   1.380       .  A
C542       C1314   1.474       .  S
C543        H545   1.081       .  S
N546        N547   1.322       .  A
N546        C550   1.346       .  A
N547        C548   1.344       .  A
C548        C549   1.379       .  A
C548        H551   1.081       .  S
C549       C1402   1.436       .  S
C549        C550   1.380       .  A
C550        H552   1.080       .  S
N553        N554   1.323       .  A
N553        C557   1.343       .  A
N553       Cu561   2.066       .  S
N554        C555   1.348       .  A
N554       Cu560   2.083       .  S
C555        C556   1.382       .  A
C555        H558   1.082       .  S
C556       C1470   1.437       .  S
C556        C557   1.377       .  A
C557        H559   1.081       .  S
Cu560       N563   2.084       .  S
Cu561       N571   2.066       .  S
Cu562       N564   2.068       .  S
Cu562       N570   2.068       .  S
N563        N564   1.323       .  A
N563        C567   1.345       .  A
N564        C565   1.346       .  A
C565        C566   1.380       .  A
C565        H568   1.083       .  S
C566        C567   1.383       .  A
C566       C1229   1.478       .  S
C567        H569   1.081       .  S
N570        N571   1.322       .  A
N570        C574   1.345       .  A
N571        C572   1.344       .  A
C572        C573   1.379       .  A
C572        H575   1.081       .  S
C573       C1399   1.434       .  S
C573        C574   1.379       .  A
C574        H576   1.080       .  S
N577        N578   1.321       .  A
N577        C581   1.342       .  A
N577       Cu585   2.061       .  S
N578        C579   1.350       .  A
N578       Cu584   2.083       .  S
C579        C580   1.385       .  A
C579        H582   1.082       .  S
C580       C1475   1.439       .  S
C580        C581   1.377       .  A
C581        H583   1.081       .  S
Cu584       N587   2.084       .  S
Cu585       N595   2.061       .  S
Cu586       N588   2.073       .  S
Cu586       N594   2.072       .  S
N587        N588   1.325       .  A
N587        C591   1.343       .  A
N588        C589   1.347       .  A
C589        C590   1.380       .  A
C589        H592   1.082       .  S
C590        C591   1.380       .  A
C590       C1308   1.474       .  S
C591        H593   1.081       .  S
N594        N595   1.322       .  A
N594        C598   1.347       .  A
N595        C596   1.342       .  A
C596        C597   1.376       .  A
C596        H599   1.081       .  S
C597       C1400   1.434       .  S
C597        C598   1.381       .  A
C598        H600   1.080       .  S
N601        N602   1.322       .  A
N601        C605   1.344       .  A
N601       Cu609   2.069       .  S
N602        C603   1.349       .  A
N602       Cu608   2.083       .  S
C603        C604   1.383       .  A
C603        H606   1.082       .  S
C604       C1490   1.441       .  S
C604        C605   1.379       .  A
C605        H607   1.080       .  S
Cu608       N611   2.084       .  S
Cu609       N619   2.069       .  S
Cu610       N612   2.064       .  S
Cu610       N618   2.064       .  S
N611        N612   1.324       .  A
N611        C615   1.344       .  A
N612        C613   1.346       .  A
C613        C614   1.379       .  A
C613        H616   1.082       .  S
C614        C615   1.382       .  A
C614       C1306   1.475       .  S
C615        H617   1.081       .  S
N618        N619   1.323       .  A
N618        C622   1.346       .  A
N619        C620   1.343       .  A
C620        C621   1.378       .  A
C620        H623   1.081       .  S
C621       C1398   1.432       .  S
C621        C622   1.379       .  A
C622        H624   1.080       .  S
N625        N626   1.322       .  A
N625        C629   1.343       .  A
N625       Cu633   2.061   1_545  S
N626        C627   1.350       .  A
N626       Cu632   2.089       .  S
C627        C628   1.385       .  A
C627        H630   1.082       .  S
C628       C1506   1.440       .  S
C628        C629   1.377       .  A
C629        H631   1.081       .  S
Cu632       N635   2.090       .  S
Cu633       N643   2.061       .  S
Cu634       N636   2.072       .  S
Cu634       N642   2.071   1_545  S
N635        N636   1.324       .  A
N635        C639   1.344       .  A
N636        C637   1.347       .  A
C637        C638   1.382       .  A
C637        H640   1.082       .  S
C638        C639   1.383       .  A
C638       C1365   1.480       .  S
C639        H641   1.081       .  S
N642        N643   1.322       .  A
N642        C646   1.347       .  A
N643        C644   1.342       .  A
C644        C645   1.376       .  A
C644        H647   1.081       .  S
C645       C1397   1.432       .  S
C645        C646   1.380       .  A
C646        H648   1.080       .  S
N649        N650   1.322       .  A
N649        C653   1.344       .  A
N649       Cu657   2.066       .  S
N650        C651   1.348       .  A
N650       Cu656   2.081       .  S
C651        C652   1.382       .  A
C651        H654   1.082       .  S
C652       C1482   1.439       .  S
C652        C653   1.378       .  A
C653        H655   1.081       .  S
Cu656       N659   2.082       .  S
Cu657       N667   2.066       .  S
Cu658       N660   2.070       .  S
Cu658       N666   2.070       .  S
N659        N660   1.324       .  A
N659        C663   1.344       .  A
N660        C661   1.346       .  A
C661        C662   1.381       .  A
C661        H664   1.082       .  S
C662        C663   1.382       .  A
C662       C1312   1.478       .  S
C663        H665   1.081       .  S
N666        N667   1.322       .  A
N666        C670   1.346       .  A
N667        C668   1.342       .  A
C668        C669   1.377       .  A
C668        H671   1.081       .  S
C669       C1395   1.433       .  S
C669        C670   1.380       .  A
C670        H672   1.080       .  S
N673        N674   1.323       .  A
N673        C677   1.344       .  A
N673       Cu681   2.067       .  S
N674        C675   1.350       .  A
N674       Cu680   2.095       .  S
C675        C676   1.385       .  A
C675        H678   1.082       .  S
C676       C1497   1.443       .  S
C676        C677   1.378       .  A
C677        H679   1.081       .  S
Cu680       N683   2.096       .  S
Cu681       N691   2.066       .  S
Cu682       N684   2.067       .  S
Cu682       N690   2.067       .  S
N683        N684   1.324       .  A
N683        C687   1.346       .  A
N684        C685   1.346       .  A
C685        C686   1.381       .  A
C685        H688   1.081       .  S
C686        C687   1.385       .  A
C686       C1367   1.482       .  S
C687        H689   1.080       .  S
N690        N691   1.322       .  A
N690        C694   1.346       .  A
N691        C692   1.343       .  A
C692        C693   1.378       .  A
C692        H695   1.081       .  S
C693       C1396   1.433       .  S
C693        C694   1.379       .  A
C694        H696   1.080       .  S
N697        N698   1.321       .  A
N697        C701   1.343       .  A
N697       Cu705   2.059       .  S
N698        C699   1.349       .  A
N698       Cu704   2.084       .  S
C699        C700   1.384       .  A
C699        H702   1.082       .  S
C700       C1466   1.440       .  S
C700        C701   1.377       .  A
C701        H703   1.081       .  S
Cu704       N707   2.086       .  S
Cu705       N715   2.059       .  S
Cu706       N708   2.081       .  S
Cu706       N714   2.080       .  S
N707        N708   1.325       .  A
N707        C711   1.344       .  A
N708        C709   1.349       .  A
C709        C710   1.381       .  A
C709        H712   1.082       .  S
C710        C711   1.381       .  A
C710       C1297   1.480       .  S
C711        H713   1.080       .  S
N714        N715   1.323       .  A
N714        C718   1.349       .  A
N715        C716   1.341       .  A
C716        C717   1.375       .  A
C716        H719   1.081       .  S
C717       C1393   1.434       .  S
C717        C718   1.383       .  A
C718        H720   1.080       .  S
N721        N722   1.323       .  A
N721        C725   1.346       .  A
N721       Cu729   2.076       .  S
N722        C723   1.350       .  A
N722       Cu728   2.088       .  S
C723        C724   1.384       .  A
C723        H726   1.081       .  S
C724       C1473   1.444       .  S
C724        C725   1.380       .  A
C725        H727   1.080       .  S
Cu728       N731   2.089       .  S
Cu729       N739   2.076       .  S
Cu730       N732   2.065       .  S
Cu730       N738   2.065       .  S
N731        N732   1.324       .  A
N731        C735   1.345       .  A
N732        C733   1.346       .  A
C733        C734   1.379       .  A
C733        H736   1.082       .  S
C734        C735   1.383       .  A
C734       C1363   1.476       .  S
C735        H737   1.081       .  S
N738        N739   1.323       .  A
N738        C742   1.346       .  A
N739        C740   1.344       .  A
C740        C741   1.380       .  A
C740        H743   1.081       .  S
C741       C1394   1.434       .  S
C741        C742   1.378       .  A
C742        H744   1.080       .  S
N745        N746   1.322       .  A
N745        C749   1.343       .  A
N745       Cu753   2.064       .  S
N746        C747   1.349       .  A
N746       Cu752   2.083       .  S
C747        C748   1.383       .  A
C747        H750   1.082       .  S
C748       C1447   1.439       .  S
C748        C749   1.378       .  A
C749        H751   1.081       .  S
Cu752       N755   2.084       .  S
Cu753       N763   2.064       .  S
Cu754       N756   2.071       .  S
Cu754       N762   2.070       .  S
N755        N756   1.324       .  A
N755        C759   1.343       .  A
N756        C757   1.348       .  A
C757        C758   1.382       .  A
C757        H760   1.082       .  S
C758        C759   1.382       .  A
C758       C1368   1.479       .  S
C759        H761   1.081       .  S
N762        N763   1.323       .  A
N762        C766   1.346       .  A
N763        C764   1.342       .  A
C764        C765   1.377       .  A
C764        H767   1.081       .  S
C765       C1391   1.432       .  S
C765        C766   1.379       .  A
C766        H768   1.080       .  S
N769        N770   1.322       .  A
N769        C773   1.342       .  A
N769       Cu777   2.059       .  S
N770        C771   1.349       .  A
N770       Cu776   2.083       .  S
C771        C772   1.384       .  A
C771        H774   1.082       .  S
C772       C1464   1.437       .  S
C772        C773   1.376       .  A
C773        H775   1.081       .  S
Cu776       N779   2.085       .  S
Cu777       N787   2.060       .  S
Cu778       N780   2.066       .  S
Cu778       N786   2.065       .  S
N779        N780   1.325       .  A
N779        C783   1.343       .  A
N780        C781   1.346       .  A
C781        C782   1.377       .  A
C781        H784   1.082       .  S
C782        C783   1.381       .  A
C782       C1303   1.472       .  S
C783        H785   1.081       .  S
N786        N787   1.322       .  A
N786        C790   1.346       .  A
N787        C788   1.342       .  A
C788        C789   1.376       .  A
C788        H791   1.081       .  S
C789       C1392   1.431       .  S
C789        C790   1.380       .  A
C790        H792   1.080       .  S
N793        N794   1.322       .  A
N793        C797   1.342       .  A
N793       Cu801   2.059       .  S
N794        C795   1.351       .  A
N794       Cu800   2.090       .  S
C795        C796   1.386   1_545  A
C795        H798   1.082       .  S
C796       C1440   1.440       .  S
C796        C797   1.376   1_565  A
C797        H799   1.081   1_545  S
Cu800       N803   2.092       .  S
Cu801       N811   2.059       .  S
Cu802       N804   2.074       .  S
Cu802       N810   2.073       .  S
N803        N804   1.325       .  A
N803        C807   1.344       .  A
N804        C805   1.348       .  A
C805        C806   1.380       .  A
C805        H808   1.082       .  S
C806        C807   1.382       .  A
C806       C1364   1.479       .  S
C807        H809   1.080       .  S
N810        N811   1.322       .  A
N810        C814   1.347       .  A
N811        C812   1.342       .  A
C812        C813   1.376       .  A
C812        H815   1.081       .  S
C813       C1389   1.433       .  S
C813        C814   1.381       .  A
C814        H816   1.080       .  S
N817        N818   1.322       .  A
N817        C821   1.343   1_545  A
N817       Cu825   2.064       .  S
N818        C819   1.352       .  A
N818       Cu824   2.095       .  S
C819        C820   1.387   1_545  A
C819        H822   1.081   1_545  S
C820       C1456   1.444       .  S
C820        C821   1.378       .  A
C821        H823   1.080       .  S
Cu824       N827   2.096       .  S
Cu825       N835   2.064       .  S
Cu826       N828   2.071       .  S
Cu826       N834   2.070       .  S
N827        N828   1.325       .  A
N827        C831   1.345       .  A
N828        C829   1.348       .  A
C829        C830   1.379       .  A
C829        H832   1.082       .  S
C830        C831   1.383       .  A
C830       C1309   1.478       .  S
C831        H833   1.081       .  S
N834        N835   1.322       .  A
N834        C838   1.347       .  A
N835        C836   1.342       .  A
C836        C837   1.377       .  A
C836        H839   1.081       .  S
C837       C1390   1.433       .  S
C837        C838   1.380       .  A
C838        H840   1.080       .  S
N841        N842   1.322   1_565  A
N841        C845   1.344       .  A
N841       Cu849   2.065   1_565  S
N842        C843   1.350       .  A
N842       Cu848   2.087       .  S
C843        C844   1.385   1_545  A
C843        H846   1.081       .  S
C844       C1438   1.442       .  S
C844        C845   1.378       .  A
C845        H847   1.080       .  S
Cu848       N851   2.088       .  S
Cu849       N859   2.065       .  S
Cu850       N852   2.067       .  S
Cu850       N858   2.067       .  S
N851        N852   1.325       .  A
N851        C855   1.344       .  A
N852        C853   1.346       .  A
C853        C854   1.380       .  A
C853        H856   1.082       .  S
C854        C855   1.382       .  A
C854       C1302   1.478       .  S
C855        H857   1.081       .  S
N858        N859   1.322       .  A
N858        C862   1.346       .  A
N859        C860   1.342       .  A
C860        C861   1.377       .  A
C860        H863   1.081   1_545  S
C861       C1387   1.433       .  S
C861        C862   1.380       .  A
C862        H864   1.080       .  S
N865        N866   1.322   1_565  A
N865        C869   1.344       .  A
N865       Cu873   2.066   1_565  S
N866        C867   1.349       .  A
N866       Cu872   2.083       .  S
C867        C868   1.384   1_545  A
C867        H870   1.082       .  S
C868       C1451   1.441       .  S
C868        C869   1.379       .  A
C869        H871   1.080       .  S
Cu872       N875   2.083       .  S
Cu873       N883   2.067       .  S
Cu874       N876   2.075       .  S
Cu874       N882   2.075       .  S
N875        N876   1.324       .  A
N875        C879   1.343       .  A
N876        C877   1.349       .  A
C877        C878   1.383       .  A
C877        H880   1.081       .  S
C878        C879   1.380       .  A
C878       C1245   1.479       .  S
C879        H881   1.080       .  S
N882        N883   1.324       .  A
N882        C886   1.346       .  A
N883        C884   1.343       .  A
C884        C885   1.377       .  A
C884        H887   1.081       .  S
C885       C1388   1.433       .  S
C885        C886   1.380       .  A
C886        H888   1.080       .  S
N889        N890   1.322       .  A
N889        C893   1.344       .  A
N889       Cu897   2.064       .  S
N890        C891   1.350       .  A
N890       Cu896   2.090       .  S
C891        C892   1.385       .  A
C891        H894   1.082       .  S
C892       C1435   1.442       .  S
C892        C893   1.378       .  A
C893        H895   1.081       .  S
Cu896       N899   2.091       .  S
Cu897       N907   2.065       .  S
Cu898       N900   2.074       .  S
Cu898       N906   2.073       .  S
N899        N900   1.325       .  A
N899        C903   1.344       .  A
N900        C901   1.348       .  A
C901        C902   1.380       .  A
C901        H904   1.082       .  S
C902        C903   1.382       .  A
C902       C1307   1.479       .  S
C903        H905   1.080       .  S
N906        N907   1.323       .  A
N906        C910   1.347       .  A
N907        C908   1.342       .  A
C908        C909   1.376       .  A
C908        H911   1.081       .  S
C909       C1385   1.433       .  S
C909        C910   1.380       .  A
C910        H912   1.080       .  S
N913        N914   1.323       .  A
N913        C917   1.343       .  A
N913       Cu921   2.063       .  S
N914        C915   1.351       .  A
N914       Cu920   2.094       .  S
C915        C916   1.386       .  A
C915        H918   1.081       .  S
C916       C1453   1.441       .  S
C916        C917   1.376       .  A
C917        H919   1.080       .  S
Cu920       N923   2.096       .  S
Cu921       N931   2.063       .  S
Cu922       N924   2.066       .  S
Cu922       N930   2.065       .  S
N923        N924   1.325       .  A
N923        C927   1.346       .  A
N924        C925   1.346       .  A
C925        C926   1.377       .  A
C925        H928   1.082       .  S
C926        C927   1.384       .  A
C926       C1242   1.477       .  S
C927        H929   1.081       .  S
N930        N931   1.321       .  A
N930        C934   1.346       .  A
N931        C932   1.343       .  A
C932        C933   1.378       .  A
C932        H935   1.081       .  S
C933       C1386   1.433       .  S
C933        C934   1.380       .  A
C934        H936   1.080       .  S
N937        N938   1.322       .  A
N937        C941   1.344       .  A
N937       Cu945   2.072       .  S
N938        C939   1.348       .  A
N938       Cu944   2.079       .  S
C939        C940   1.382       .  A
C939        H942   1.082       .  S
C940       C1445   1.440       .  S
C940        C941   1.379       .  A
C941        H943   1.081       .  S
Cu944       N947   2.079       .  S
Cu945       N955   2.072       .  S
Cu946       N948   2.072       .  S
Cu946       N954   2.072       .  S
N947        N948   1.324       .  A
N947        C951   1.343       .  A
N948        C949   1.347       .  A
C949        C950   1.381       .  A
C949        H952   1.082       .  S
C950        C951   1.381       .  A
C950       C1313   1.476       .  S
C951        H953   1.081       .  S
N954        N955   1.323       .  A
N954        C958   1.346       .  A
N955        C956   1.344       .  A
C956        C957   1.379       .  A
C956        H959   1.081       .  S
C957       C1384   1.436       .  S
C957        C958   1.380       .  A
C958        H960   1.080       .  S
N961        N962   1.322       .  A
N961        C965   1.343       .  A
N961       Cu969   2.065       .  S
N962        C963   1.349       .  A
N962       Cu968   2.083       .  S
C963        C964   1.384       .  A
C963        H966   1.082       .  S
C964       C1460   1.441       .  S
C964        C965   1.378       .  A
C965        H967   1.081       .  S
Cu968       N971   2.083       .  S
Cu969       N979   2.065       .  S
Cu970       N972   2.077       .  S
Cu970       N978   2.076       .  S
N971        N972   1.324       .  A
N971        C975   1.343       .  A
N972        C973   1.348       .  A
C973        C974   1.383       .  A
C973        H976   1.081       .  S
C974        C975   1.381       .  A
C974       C1238   1.481       .  S
C975        H977   1.080       .  S
N978        N979   1.323       .  A
N978        C982   1.347       .  A
N979        C980   1.343       .  A
C980        C981   1.377       .  A
C980        H983   1.081       .  S
C981       C1383   1.435       .  S
C981        C982   1.382       .  A
C982        H984   1.080       .  S
N985        N986   1.322       .  A
N985        C989   1.343   1_545  A
N985       Cu993   2.066       .  S
N986        C987   1.348   1_545  A
N986       Cu992   2.072       .  S
C987        C988   1.381       .  A
C987        H990   1.082   1_565  S
C988       C1421   1.436       .  S
C988        C989   1.378       .  A
C989        H991   1.081       .  S
Cu992       N995   2.074       .  S
Cu993      N1003   2.067       .  S
Cu994       N996   2.077       .  S
Cu994      N1002   2.077       .  S
N995        N996   1.324       .  A
N995        C999   1.342       .  A
N996        C997   1.347       .  A
C997        C998   1.381       .  A
C997       H1000   1.082       .  S
C998        C999   1.379       .  A
C998       C1311   1.475       .  S
C999       H1001   1.081       .  S
N1002      N1003   1.322       .  A
N1002      C1006   1.348       .  A
N1003      C1004   1.343       .  A
C1004      C1005   1.378       .  A
C1004      H1007   1.081       .  S
C1005      C1381   1.437       .  S
C1005      C1006   1.382       .  A
C1006      H1008   1.080       .  S
N1009      N1010   1.322   1_565  A
N1009      C1013   1.344       .  A
N1009     Cu1017   2.070   1_565  S
N1010      C1011   1.350       .  A
N1010     Cu1016   2.087       .  S
C1011      C1012   1.385   1_545  A
C1011      H1014   1.081       .  S
C1012      C1427   1.443       .  S
C1012      C1013   1.379       .  A
C1013      H1015   1.080       .  S
Cu1016     N1019   2.088       .  S
Cu1017     N1027   2.070       .  S
Cu1018     N1020   2.079       .  S
Cu1018     N1026   2.078       .  S
N1019      N1020   1.324       .  A
N1019      C1023   1.345       .  A
N1020      C1021   1.348       .  A
C1021      C1022   1.383       .  A
C1021      H1024   1.082       .  S
C1022      C1023   1.383       .  A
C1022      C1243   1.483       .  S
C1023      H1025   1.081       .  S
N1026      N1027   1.323       .  A
N1026      C1030   1.348       .  A
N1027      C1028   1.344       .  A
C1028      C1029   1.378       .  A
C1028      H1031   1.081   1_545  S
C1029      C1382   1.437       .  S
C1029      C1030   1.382       .  A
C1030      H1032   1.080       .  S
N1033      N1034   1.322       .  A
N1033      C1037   1.343       .  A
N1033     Cu1041   2.067       .  S
N1034      C1035   1.347       .  A
N1034     Cu1040   2.071       .  S
C1035      C1036   1.380       .  A
C1035      H1038   1.082       .  S
C1036      C1420   1.435       .  S
C1036      C1037   1.378       .  A
C1037      H1039   1.081       .  S
Cu1040     N1043   2.073       .  S
Cu1041     N1051   2.067       .  S
Cu1042     N1044   2.064       .  S
Cu1042     N1050   2.064       .  S
N1043      N1044   1.323       .  A
N1043      C1047   1.342       .  A
N1044      C1045   1.346       .  A
C1045      C1046   1.378       .  A
C1045      H1048   1.082       .  S
C1046      C1047   1.379       .  A
C1046      C1305   1.470       .  S
C1047      H1049   1.081       .  S
N1050      N1051   1.322       .  A
N1050      C1054   1.346       .  A
N1051      C1052   1.343       .  A
C1052      C1053   1.378       .  A
C1052      H1055   1.081       .  S
C1053      C1379   1.432       .  S
C1053      C1054   1.378       .  A
C1054      H1056   1.080       .  S
N1057      N1058   1.322       .  A
N1057      C1061   1.343       .  A
N1057     Cu1065   2.062       .  S
N1058      C1059   1.351       .  A
N1058     Cu1064   2.092       .  S
C1059      C1060   1.386       .  A
C1059      H1062   1.082       .  S
C1060      C1429   1.442       .  S
C1060      C1061   1.377       .  A
C1061      H1063   1.081       .  S
Cu1064     N1067   2.094       .  S
Cu1065     N1075   2.061       .  S
Cu1066     N1068   2.067       .  S
Cu1066     N1074   2.067       .  S
N1067      N1068   1.325       .  A
N1067      C1071   1.345       .  A
N1068      C1069   1.346       .  A
C1069      C1070   1.377       .  A
C1069      H1072   1.082       .  S
C1070      C1071   1.383       .  A
C1070      C1226   1.476       .  S
C1071      H1073   1.081       .  S
N1074      N1075   1.321       .  A
N1074      C1078   1.347       .  A
N1075      C1076   1.342       .  A
C1076      C1077   1.377       .  A
C1076      H1079   1.081       .  S
C1077      C1380   1.432       .  S
C1077      C1078   1.381       .  A
C1078      H1080   1.080       .  S
N1081      N1082   1.323       .  A
N1081      C1085   1.344       .  A
N1081     Cu1089   2.070       .  S
N1082      C1083   1.348       .  A
N1082     Cu1088   2.082       .  S
C1083      C1084   1.382       .  A
C1083      H1086   1.082       .  S
C1084      C1442   1.439       .  S
C1084      C1085   1.379       .  A
C1085      H1087   1.081       .  S
Cu1088     N1091   2.083       .  S
Cu1089     N1099   2.070       .  S
Cu1090     N1092   2.072       .  S
Cu1090     N1098   2.072       .  S
N1091      N1092   1.323       .  A
N1091      C1095   1.344       .  A
N1092      C1093   1.348       .  A
C1093      C1094   1.381       .  A
C1093      H1096   1.082       .  S
C1094      C1095   1.382       .  A
C1094      C1247   1.478       .  S
C1095      H1097   1.081       .  S
N1098      N1099   1.323       .  A
N1098      C1102   1.346       .  A
N1099      C1100   1.344       .  A
C1100      C1101   1.378       .  A
C1100      H1103   1.081       .  S
C1101      C1378   1.434       .  S
C1101      C1102   1.379       .  A
C1102      H1104   1.080       .  S
N1105      N1106   1.322       .  A
N1105      C1109   1.342       .  A
N1105     Cu1113   2.057       .  S
N1106      C1107   1.350       .  A
N1106     Cu1112   2.087       .  S
C1107      C1108   1.385       .  A
C1107      H1110   1.082       .  S
C1108      C1458   1.439       .  S
C1108      C1109   1.376       .  A
C1109      H1111   1.081       .  S
Cu1112     N1115   2.088       .  S
Cu1113     N1123   2.058       .  S
Cu1114     N1116   2.070       .  S
Cu1114     N1122   2.069       .  S
N1115      N1116   1.325       .  A
N1115      C1119   1.343       .  A
N1116      C1117   1.347       .  A
C1117      C1118   1.378       .  A
C1117      H1120   1.082       .  S
C1118      C1119   1.381       .  A
C1118      C1236   1.474       .  S
C1119      H1121   1.081       .  S
N1122      N1123   1.321       .  A
N1122      C1126   1.347       .  A
N1123      C1124   1.342       .  A
C1124      C1125   1.376       .  A
C1124      H1127   1.081       .  S
C1125      C1377   1.433       .  S
C1125      C1126   1.381       .  A
C1126      H1128   1.080       .  S
N1129      N1130   1.322       .  A
N1129      C1133   1.343       .  A
N1129     Cu1137   2.066       .  S
N1130      C1131   1.350       .  A
N1130     Cu1136   2.085       .  S
C1131      C1132   1.384       .  A
C1131      H1134   1.082       .  S
C1132      C1418   1.440       .  S
C1132      C1133   1.378       .  A
C1133      H1135   1.081       .  S
Cu1136     N1139   2.086       .  S
Cu1137     N1147   2.066       .  S
Cu1138     N1140   2.079       .  S
Cu1138     N1146   2.078       .  S
N1139      N1140   1.324       .  A
N1139      C1143   1.343       .  A
N1140      C1141   1.349       .  A
C1141      C1142   1.383       .  A
C1141      H1144   1.082       .  S
C1142      C1143   1.382       .  A
C1142      C1240   1.482       .  S
C1143      H1145   1.081       .  S
N1146      N1147   1.323       .  A
N1146      C1150   1.348       .  A
N1147      C1148   1.343       .  A
C1148      C1149   1.378       .  A
C1148      H1151   1.081       .  S
C1149      C1376   1.436       .  S
C1149      C1150   1.382       .  A
C1150      H1152   1.080       .  S
N1153      N1154   1.322       .  A
N1153      C1157   1.344       .  A
N1153     Cu1161   2.068       .  S
N1154      C1155   1.350       .  A
N1154     Cu1160   2.085       .  S
C1155      C1156   1.385       .  A
C1155      H1158   1.082       .  S
C1156      C1426   1.442       .  S
C1156      C1157   1.378       .  A
C1157      H1159   1.080       .  S
Cu1160     N1163   2.086       .  S
Cu1161     N1171   2.068       .  S
Cu1162     N1164   2.072       .  S
Cu1162     N1170   2.072       .  S
N1163      N1164   1.325       .  A
N1163      C1167   1.344       .  A
N1164      C1165   1.347       .  A
C1165      C1166   1.380       .  A
C1165      H1168   1.082       .  S
C1166      C1167   1.381       .  A
C1166      C1234   1.476       .  S
C1167      H1169   1.081       .  S
N1170      N1171   1.322       .  A
N1170      C1174   1.347       .  A
N1171      C1172   1.344       .  A
C1172      C1173   1.379       .  A
C1172      H1175   1.081       .  S
C1173      C1375   1.436       .  S
C1173      C1174   1.381       .  A
C1174      H1176   1.080       .  S
N1177      N1178   1.322       .  A
N1177      C1181   1.344       .  A
N1177     Cu1185   2.063       .  S
N1178      C1179   1.350       .  A
N1178     Cu1184   2.091       .  S
C1179      C1180   1.386       .  A
C1179      H1182   1.081       .  S
C1180      C1433   1.444       .  S
C1180      C1181   1.378       .  A
C1181      H1183   1.080       .  S
Cu1184     N1187   2.092       .  S
Cu1185     N1195   2.063       .  S
Cu1186     N1188   2.071       .  S
Cu1186     N1194   2.070       .  S
N1187      N1188   1.325       .  A
N1187      C1191   1.344       .  A
N1188      C1189   1.347       .  A
C1189      C1190   1.380       .  A
C1189      H1192   1.082       .  S
C1190      C1191   1.382       .  A
C1190      C1228   1.478       .  S
C1191      H1193   1.081       .  S
N1194      N1195   1.322       .  A
N1194      C1198   1.347       .  A
N1195      C1196   1.342       .  A
C1196      C1197   1.376       .  A
C1196      H1199   1.081       .  S
C1197      C1373   1.433       .  S
C1197      C1198   1.381       .  A
C1198      H1200   1.080       .  S
N1201      N1202   1.323       .  A
N1201      C1205   1.344       .  A
N1201     Cu1209   2.070       .  S
N1202      C1203   1.350       .  A
N1202     Cu1208   2.089       .  S
C1203      C1204   1.385       .  A
C1203      H1206   1.082       .  S
C1204      C1449   1.442       .  S
C1204      C1205   1.378       .  A
C1205      H1207   1.081       .  S
Cu1208     N1211   2.090       .  S
Cu1209     N1219   2.070       .  S
Cu1210     N1212   2.061       .  S
Cu1210     N1218   2.061       .  S
N1211      N1212   1.324       .  A
N1211      C1215   1.344       .  A
N1212      C1213   1.345       .  A
C1213      C1214   1.379       .  A
C1213      H1216   1.082       .  S
C1214      C1215   1.383       .  A
C1214      C1232   1.476       .  S
C1215      H1217   1.081       .  S
N1218      N1219   1.322       .  A
N1218      C1222   1.345       .  A
N1219      C1220   1.343       .  A
C1220      C1221   1.379       .  A
C1220      H1223   1.081       .  S
C1221      C1374   1.433       .  S
C1221      C1222   1.379       .  A
C1222      H1224   1.081       .  S
C1225      C1226   1.410       .  A
C1225      C1230   1.409       .  A
C1226      C1227   1.409       .  A
C1227      C1228   1.411       .  A
C1228      C1229   1.413       .  A
C1229      C1230   1.408       .  A
C1230      C1286   1.478       .  S
C1231      C1232   1.411       .  A
C1231      C1236   1.407       .  A
C1232      C1233   1.409       .  A
C1233      C1234   1.409       .  A
C1234      C1235   1.409       .  A
C1235      C1236   1.408       .  A
C1237      C1238   1.409       .  A
C1237      C1242   1.410       .  A
C1238      C1239   1.413       .  A
C1239      C1240   1.412       .  A
C1240      C1241   1.410       .  A
C1241      C1242   1.411       .  A
C1243      C1244   1.412       .  A
C1243      C1248   1.410       .  A
C1244      C1245   1.409       .  A
C1245      C1246   1.407       .  A
C1246      C1247   1.410       .  A
C1247      C1248   1.412       .  A
N1249      N1250   1.322       .  A
N1249      C1253   1.343       .  A
N1249     Cu1257   2.066       .  S
N1250      C1251   1.350       .  A
N1250     Cu1256   2.088       .  S
C1251      C1252   1.385       .  A
C1251      H1254   1.082       .  S
C1252      C1444   1.442       .  S
C1252      C1253   1.378       .  A
C1253      H1255   1.081       .  S
Cu1256     N1259   2.089       .  S
Cu1257     N1267   2.067       .  S
Cu1258     N1260   2.072       .  S
Cu1258     N1266   2.072       .  S
N1259      N1260   1.325       .  A
N1259      C1263   1.344       .  A
N1260      C1261   1.347       .  A
C1261      C1262   1.379       .  A
C1261      H1264   1.082       .  S
C1262      C1263   1.381       .  A
C1262      C1298   1.476       .  S
C1263      H1265   1.081       .  S
N1266      N1267   1.322       .  A
N1266      C1270   1.347       .  A
N1267      C1268   1.343       .  A
C1268      C1269   1.378       .  A
C1268      H1271   1.081       .  S
C1269      C1371   1.435       .  S
C1269      C1270   1.381       .  A
C1270      H1272   1.080       .  S
N1273      N1274   1.323       .  A
N1273      C1277   1.344       .  A
N1273     Cu1281   2.068       .  S
N1274      C1275   1.349       .  A
N1274     Cu1280   2.088       .  S
C1275      C1276   1.384       .  A
C1275      H1278   1.082       .  S
C1276      C1461   1.441       .  S
C1276      C1277   1.378       .  A
C1277      H1279   1.081       .  S
Cu1280     N1283   2.089       .  S
Cu1281     N1291   2.068       .  S
Cu1282     N1284   2.071       .  S
Cu1282     N1290   2.071       .  S
N1283      N1284   1.324       .  A
N1283      C1287   1.344       .  A
N1284      C1285   1.348       .  A
C1285      C1286   1.379       .  A
C1285      H1288   1.082       .  S
C1286      C1287   1.383       .  A
C1287      H1289   1.081       .  S
N1290      N1291   1.322       .  A
N1290      C1294   1.346       .  A
N1291      C1292   1.344       .  A
C1292      C1293   1.378       .  A
C1292      H1295   1.081       .  S
C1293      C1372   1.435       .  S
C1293      C1294   1.380       .  A
C1294      H1296   1.080       .  S
C1297      C1298   1.407       .  A
C1297      C1302   1.408       .  A
C1298      C1299   1.412       .  A
C1299      C1300   1.412       .  A
C1300      C1301   1.413       .  A
C1300      C1352   1.482       .  S
C1301      C1302   1.414       .  A
C1303      C1304   1.408       .  A
C1303      C1308   1.410       .  A
C1304      C1305   1.407       .  A
C1305      C1306   1.410       .  A
C1306      C1307   1.407       .  A
C1307      C1308   1.408       .  A
C1309      C1310   1.407       .  A
C1309      C1314   1.408       .  A
C1310      C1311   1.408       .  A
C1311      C1312   1.410       .  A
C1312      C1313   1.409       .  A
C1313      C1314   1.409       .  A
N1315      N1316   1.324       .  A
N1315      C1319   1.344   1_545  A
N1315     Cu1323   2.071       .  S
N1316      C1317   1.350       .  A
N1316     Cu1322   2.090       .  S
C1317      C1318   1.384   1_545  A
C1317      H1320   1.082       .  S
C1318      C1424   1.441       .  S
C1318      C1319   1.378       .  A
C1319      H1321   1.081       .  S
Cu1322     N1325   2.091       .  S
Cu1323     N1333   2.071       .  S
Cu1324     N1326   2.065       .  S
Cu1324     N1332   2.065       .  S
N1325      N1326   1.324       .  A
N1325      C1329   1.346       .  A
N1326      C1327   1.345       .  A
C1327      C1328   1.378       .  A
C1327      H1330   1.082       .  S
C1328      C1329   1.384       .  A
C1328      C1366   1.477       .  S
C1329      H1331   1.081       .  S
N1332      N1333   1.321       .  A
N1332      C1336   1.346       .  A
N1333      C1334   1.344       .  A
C1334      C1335   1.380       .  A
C1334      H1337   1.081       .  S
C1335      C1369   1.436       .  S
C1335      C1336   1.380       .  A
C1336      H1338   1.080       .  S
N1339      N1340   1.323       .  A
N1339      C1343   1.343   1_545  A
N1339     Cu1347   2.066       .  S
N1340      C1341   1.350       .  A
N1340     Cu1346   2.087       .  S
C1341      C1342   1.384   1_545  A
C1341      H1344   1.082       .  S
C1342      C1432   1.441       .  S
C1342      C1343   1.378       .  A
C1343      H1345   1.081       .  S
Cu1346     N1349   2.089       .  S
Cu1347     N1357   2.065       .  S
Cu1348     N1350   2.080       .  S
Cu1348     N1356   2.079       .  S
N1349      N1350   1.324       .  A
N1349      C1353   1.345       .  A
N1350      C1351   1.348       .  A
C1351      C1352   1.383       .  A
C1351      H1354   1.081       .  S
C1352      C1353   1.383       .  A
C1353      H1355   1.080       .  S
N1356      N1357   1.322       .  A
N1356      C1360   1.348       .  A
N1357      C1358   1.343       .  A
C1358      C1359   1.377       .  A
C1358      H1361   1.081       .  S
C1359      C1370   1.436       .  S
C1359      C1360   1.382       .  A
C1360      H1362   1.080       .  S
C1363      C1364   1.409       .  A
C1363      C1368   1.411       .  A
C1364      C1365   1.408       .  A
C1365      C1366   1.412       .  A
C1366      C1367   1.412       .  A
C1367      C1368   1.410       .  A
C1369      C1370   1.205       .  T
C1371      C1372   1.205       .  T
C1373      C1374   1.203       .  T
C1375      C1376   1.205       .  T
C1377      C1378   1.204       .  T
C1379      C1380   1.203       .  T
C1381      C1382   1.206       .  T
C1383      C1384   1.205       .  T
C1385      C1386   1.203       .  T
C1387      C1388   1.203       .  T
C1389      C1390   1.204       .  T
C1391      C1392   1.202       .  T
C1393      C1394   1.204   1_556  T
C1395      C1396   1.203   1_655  T
C1397      C1398   1.203       .  T
C1399      C1400   1.204   1_556  T
C1401      C1402   1.205   1_556  T
C1403      C1404   1.205       .  T
C1405      C1406   1.204   1_655  T
C1407      C1408   1.204       .  T
C1409      C1410   1.204   1_455  T
C1411      C1412   1.204   1_554  T
C1413      C1414   1.204   1_655  T
C1415      C1416   1.204       .  T
C1417      C1418   1.208       .  T
C1419      C1420   1.205       .  T
C1421      C1422   1.205       .  T
C1423      C1424   1.208       .  T
C1425      C1426   1.209       .  T
C1427      C1428   1.210       .  T
C1429      C1430   1.209       .  T
C1431      C1432   1.208       .  T
C1433      C1434   1.210       .  T
C1435      C1436   1.209       .  T
C1437      C1438   1.209       .  T
C1439      C1440   1.208       .  T
C1441      C1442   1.207       .  T
C1443      C1444   1.209       .  T
C1445      C1446   1.208       .  T
C1447      C1448   1.207       .  T
C1449      C1450   1.209       .  T
C1451      C1452   1.208       .  T
C1453      C1454   1.209       .  T
C1455      C1456   1.211       .  T
C1457      C1458   1.207       .  T
C1459      C1460   1.208       .  T
C1461      C1462   1.208       .  T
C1463      C1464   1.206       .  T
C1465      C1466   1.208       .  T
C1467      C1468   1.206       .  T
C1469      C1470   1.206       .  T
C1471      C1472   1.208       .  T
C1473      C1474   1.210       .  T
C1475      C1476   1.207       .  T
C1477      C1478   1.207       .  T
C1479      C1480   1.210       .  T
C1481      C1482   1.207       .  T
C1483      C1484   1.209       .  T
C1485      C1486   1.206       .  T
C1487      C1488   1.207       .  T
C1489      C1490   1.208       .  T
C1491      C1492   1.209       .  T
C1493      C1494   1.209       .  T
C1495      C1496   1.209       .  T
C1497      C1498   1.209       .  T
C1499      C1500   1.210       .  T
C1501      C1502   1.210       .  T
C1503      C1504   1.209       .  T
C1505      C1506   1.208       .  T
C1507      C1508   1.207       .  T
C1509      C1510   1.207       .  T
C1511      C1512   1.207       .  T
