geometry optimzed in LAMMPS
_audit_creation_date              2020-11-30 
_audit_creation_method            'lammps2cif' 
_symmetry_space_group_name_H-M    'P1' 
_symmetry_Int_Tables_number       1 
_symmetry_cell_setting            triclinic 
loop_ 
_symmetry_equiv_pos_as_xyz 
  x,y,z 
_cell_length_a                    27.08594458 
_cell_length_b                    27.155427889885893 
_cell_length_c                    27.057344604307843 
_cell_angle_alpha                 90.0107255908566 
_cell_angle_beta                  90.10472950978924 
_cell_angle_gamma                 90.29710481658874 
loop_ 
_atom_site_label 
_atom_site_type_symbol 
_atom_site_fract_x 
_atom_site_fract_y 
_atom_site_fract_z 
_atom_site_charge 
O1          O  0.18050733  0.44639779  0.05541884    -0.81000
O2          O  0.18258038  0.55811908  0.95976073    -0.81000
O3          O  0.24453057  0.53731153  0.11681488    -0.81000
O4          O  0.24304218  0.46560780  0.89822630    -0.80900
O5          O  0.18197343  0.54758298  0.06570237    -0.81100
O6          O  0.18030518  0.45707373  0.94931094    -0.81000
O7          O  0.24592878  0.55945422  0.90914338    -0.81000
O8          O  0.24398071  0.44317608  0.10593308    -0.81000
C9          C  0.19768412  0.44102891  0.09891380     1.08700
C10         C  0.19992021  0.56425681  0.91653764     1.08600
C11         C  0.19900060  0.54677041  0.10958452     1.08700
C12         C  0.19709125  0.45849355  0.90540427     1.08600
O13         O  0.27202881  0.40255378  0.94887250    -0.81000
O14         O  0.27586411  0.59876163  0.06607047    -0.81000
O15         O  0.33622520  0.44254454  0.05270213    -0.81000
O16         O  0.33868051  0.55764490  0.96205216    -0.81000
O17         O  0.27695933  0.60931128  0.97181820    -0.81000
O18         O  0.27260719  0.39239772  0.04305975    -0.81000
O19         O  0.33634117  0.45221118  0.95095567    -0.80900
O20         O  0.33839692  0.54779424  0.06372202    -0.81000
Co21       Co  0.22655320  0.43123500  0.99999759     1.51500
Co22       Co  0.22932531  0.57172936  0.01497301     1.51700
Co23       Co  0.29068955  0.49352104  0.07817983     1.51600
Co24       Co  0.29085239  0.50789734  0.93690690     1.51500
O25         O  0.25937743  0.50105136  0.00752188    -1.42900
C26         C  0.31825764  0.40946118  0.94393535     1.08700
C27         C  0.32194490  0.59116347  0.06956724     1.08700
C28         C  0.31855593  0.39908237  0.05055408     1.08700
C29         C  0.32257255  0.60156628  0.96364725     1.08700
O30         O  0.76422089  0.46448866  0.10252390    -0.81000
O31         O  0.78275230  0.55131063  0.90553155    -0.81000
O32         O  0.82619018  0.45561604  0.94366972    -0.81000
O33         O  0.81902966  0.56243596  0.02968904    -0.80900
O34         O  0.76518736  0.46099398  0.89008964    -0.81100
O35         O  0.76111666  0.56053979  0.08773549    -0.81000
O36         O  0.79478073  0.62079985  0.94764723    -0.81000
O37         O  0.82621809  0.45589169  0.04994714    -0.81000
C38         C  0.81004824  0.45804014  0.09411576     1.08700
C39         C  0.80291239  0.59426522  0.90977002     1.08600
C40         C  0.81089555  0.45575079  0.89908228     1.08700
C41         C  0.80507340  0.57030118  0.07394646     1.08600
O42         O  0.66598940  0.55500399  0.04009950    -0.81000
O43         O  0.67259362  0.45291816  0.93885060    -0.81000
O44         O  0.73640030  0.39971542  0.04673646    -0.81000
O45         O  0.70316499  0.58124939  0.93571243    -0.81000
O46         O  0.69129826  0.53205722  0.87083994    -0.81000
O47         O  0.67160612  0.44902492  0.05268316    -0.81000
O48         O  0.72450070  0.60869200  0.02173041    -0.80900
O49         O  0.73433867  0.40023441  0.94875656    -0.81000
Co50       Co  0.71545207  0.50659043  0.06606783     1.51500
Co51       Co  0.72320021  0.50635054  0.92905702     1.51700
Co52       Co  0.78059742  0.43233014  0.99712908     1.51600
Co53       Co  0.76527745  0.56501943  0.97961452     1.51500
O54         O  0.74554596  0.49754135  0.99834968    -1.42900
C55         C  0.68023201  0.59952932  0.03421019     1.08700
C56         C  0.68874054  0.40860712  0.94030294     1.08700
C57         C  0.69058746  0.40618386  0.05525515     1.08700
C58         C  0.68405478  0.57307788  0.89276516     1.08700
O59         O  0.44328461  0.04027970  0.33366380    -0.81000
O60         O  0.56277568  0.95037021  0.33046337    -0.81000
O61         O  0.40592972  0.93751758  0.26482581    -0.81000
O62         O  0.60018887  0.05706962  0.27031090    -0.80900
O63         O  0.45612652  0.93851687  0.32882631    -0.81100
O64         O  0.54984684  0.05198366  0.33376574    -0.81000
O65         O  0.61258483  0.96361384  0.26751542    -0.81000
O66         O  0.39299695  0.03089460  0.27009314    -0.81000
C67         C  0.39953740  0.03896856  0.31608773     1.08700
C68         C  0.60638568  0.95331277  0.31291788     1.08600
C69         C  0.41309230  0.93212299  0.31086340     1.08700
C70         C  0.59305672  0.05897398  0.31666818     1.08600
O71         O  0.53709440  0.10735392  0.24178790    -0.81000
O72         O  0.46954341  0.88992026  0.23357156    -0.81000
O73         O  0.44634830  0.04815062  0.17779641    -0.81000
O74         O  0.56078563  0.95282540  0.17406321    -0.81000
O75         O  0.56333445  0.90058780  0.23608454    -0.81000
O76         O  0.44290974  0.09593865  0.24314423    -0.81000
O77         O  0.54706078  0.05813572  0.17765963    -0.80900
O78         O  0.45947380  0.94311542  0.17280366    -0.81000
Co79       Co  0.49437756  0.06709598  0.28776337     1.51500
Co80       Co  0.51186241  0.92664310  0.28249355     1.51700
Co81       Co  0.43281045  0.99081654  0.22157013     1.51600
Co82       Co  0.57329775  0.00711388  0.22250995     1.51500
O83         O  0.50304699  0.99790492  0.25378083    -1.42900
C84         C  0.54547102  0.10130340  0.19582686     1.08700
C85         C  0.46321778  0.89883963  0.18781425     1.08700
C86         C  0.43934347  0.09040913  0.19671676     1.08700
C87         C  0.56942992  0.90972879  0.19042886     1.08700
O88         O  0.39085461  0.05077249  0.74398153    -0.81000
O89         O  0.57483443  0.94474380  0.70941348    -0.81000
O90         O  0.54412768  0.04434904  0.66687833    -0.81000
O91         O  0.44464203  0.94638709  0.67936097    -0.80900
O92         O  0.60074052  0.02990116  0.72413857    -0.81100
O93         O  0.39360140  0.95311769  0.74301545    -0.81000
O94         O  0.52531358  0.88089880  0.69350608    -0.81000
O95         O  0.43738846  0.05370904  0.67682249    -0.81000
C96         C  0.39497810  0.05527776  0.69726531     1.08700
C97         C  0.56657681  0.90317341  0.68773110     1.08600
C98         C  0.58948407  0.04055800  0.67968224     1.08700
C99         C  0.40068914  0.94552157  0.69697242     1.08600
O100        O  0.45142476  0.94940752  0.83292478    -0.81000
O101        O  0.55883836  0.04589528  0.82033431    -0.81000
O102        O  0.45608007  0.10776681  0.76685018    -0.81000
O103        O  0.54689417  0.91400858  0.78695142    -0.81000
O104        O  0.61529852  0.95839895  0.79954213    -0.81000
O105        O  0.45063143  0.05706455  0.83118649    -0.81000
O106        O  0.45653561  0.89680275  0.77108763    -0.80900
O107        O  0.55278103  0.09754399  0.75731629    -0.81000
Co108      Co  0.42605417  0.00271843  0.78777724     1.51500
Co109      Co  0.55918542  0.99054082  0.77027481     1.51700
Co110      Co  0.49677150  0.07133030  0.71695793     1.51600
Co111      Co  0.49986998  0.93731483  0.72816820     1.51500
O112        O  0.49080727  0.00567773  0.75120907    -1.42900
C113        C  0.45158011  0.90501013  0.81701998     1.08700
C114        C  0.56348014  0.08947624  0.80240387     1.08700
C115        C  0.45316140  0.10066676  0.81342723     1.08700
C116        C  0.59070121  0.91853944  0.80565986     1.08700
O117        O  0.05046237  0.33406321  0.45071320    -0.81000
O118        O  0.94608434  0.33675727  0.55235899    -0.81000
O119        O  0.95178231  0.27046214  0.39583437    -0.81000
O120        O  0.04150034  0.27115232  0.60849366    -0.80900
O121        O  0.94791246  0.33455159  0.44534961    -0.81100
O122        O  0.04831815  0.33389481  0.55751509    -0.81000
O123        O  0.94675806  0.27427241  0.60414338    -0.81000
O124        O  0.04656326  0.27080055  0.39985429    -0.81000
C125        C  0.05259420  0.31671667  0.40704111     1.08700
C126        C  0.94372537  0.32028811  0.59637617     1.08600
C127        C  0.94581672  0.31651206  0.40191808     1.08700
C128        C  0.05005009  0.31672087  0.60126673     1.08600
O129        O  0.09875279  0.23979618  0.55253066    -0.81000
O130        O  0.89338858  0.24227243  0.45226665    -0.81000
O131        O  0.05079005  0.17830615  0.45292224    -0.81000
O132        O  0.93884464  0.18119016  0.55266699    -0.81000
O133        O  0.88955741  0.24517787  0.54704421    -0.81000
O134        O  0.10257472  0.24081121  0.45779292    -0.81000
O135        O  0.04549722  0.17824031  0.55519348    -0.80900
O136        O  0.94388927  0.17892959  0.45112105    -0.81000
Co137      Co  0.06809328  0.28714050  0.50442653     1.51500
Co138      Co  0.92604801  0.28952394  0.49947849     1.51700
Co139      Co  0.99800283  0.22482194  0.43172574     1.51600
Co140      Co  0.99340293  0.22628127  0.57331067     1.51500
O141        O  0.99639745  0.25702812  0.50221839    -1.42900
C142        C  0.08974487  0.19407122  0.55790346     1.08700
C143        C  0.90025242  0.19608083  0.44894055     1.08700
C144        C  0.09472841  0.19514462  0.45039697     1.08700
C145        C  0.89568759  0.19944221  0.55526205     1.08700
O146        O  0.04916957  0.71748914  0.40453852    -0.81000
O147        O  0.94281873  0.71550498  0.59546050    -0.81000
O148        O  0.04489592  0.66775427  0.56640354    -0.81000
O149        O  0.90148357  0.67291594  0.44209633    -0.80900
O150        O  0.03689259  0.73233871  0.61404704    -0.81100
O151        O  0.95442797  0.72183438  0.40003716    -0.81000
O152        O  0.94963144  0.65757775  0.53719060    -0.81000
O153        O  0.04818977  0.65924743  0.46105008    -0.81000
C154        C  0.04909912  0.67217771  0.41580737     1.08700
C155        C  0.93766474  0.67086849  0.58104453     1.08600
C156        C  0.04526430  0.68680886  0.60921318     1.08700
C157        C  0.91992284  0.68824735  0.40106733     1.08600
O158        O  0.96055634  0.82611467  0.44506544    -0.81000
O159        O  0.04124862  0.82205150  0.56124976    -0.81000
O160        O  0.10801041  0.74827244  0.46164480    -0.81000
O161        O  0.88771008  0.74079818  0.52909295    -0.81000
O162        O  0.92874783  0.80866529  0.55097310    -0.81000
O163        O  0.06249319  0.81379919  0.45033623    -0.81000
O164        O  0.90690180  0.76820178  0.45329161    -0.80900
O165        O  0.09647848  0.76114317  0.55681079    -0.81000
Co166      Co  0.00623365  0.77028094  0.43174730     1.51500
Co167      Co  0.98823004  0.77070379  0.57459654     1.51700
Co168      Co  0.06892537  0.70967932  0.51117679     1.51600
Co169      Co  0.94067224  0.71072272  0.48730566     1.51500
O170        O  0.00220019  0.74447214  0.50469411    -1.42900
C171        C  0.91619030  0.81269084  0.44488990     1.08700
C172        C  0.08648162  0.80692043  0.56174594     1.08700
C173        C  0.10467107  0.79379697  0.45189881     1.08700
C174        C  0.88773758  0.78454319  0.54676804     1.08700
C175        C  0.75002736  0.79165857  0.57132740    -0.11700
C176        C  0.74358053  0.84085313  0.58511354     0.05500
C177        C  0.78478412  0.87301074  0.58298189    -0.10400
C178        C  0.83186900  0.85551647  0.57040390    -0.12100
C179        C  0.83858900  0.80559861  0.55920194    -0.01900
C180        C  0.79674274  0.77430406  0.55870283    -0.11000
C181        C  0.69638702  0.85655092  0.60859117     0.05500
H182        H  0.78084322  0.91151254  0.59254232     0.07400
H183        H  0.86291883  0.88078283  0.56999079     0.10900
H184        H  0.80011496  0.73564982  0.54959031     0.11100
H185        H  0.71950019  0.76579992  0.57292392     0.07400
C186        C  0.64942696  0.83979841  0.59243953    -0.11700
C187        C  0.60608232  0.85311361  0.61812839    -0.11000
C188        C  0.60944153  0.88310771  0.66028809    -0.01900
C189        C  0.65654920  0.89808732  0.67667984    -0.12100
C190        C  0.69898613  0.88550381  0.65122449    -0.10500
H191        H  0.64625727  0.81687876  0.55983703     0.07400
H192        H  0.57038769  0.84097790  0.60462933     0.11100
H193        H  0.66090125  0.91997295  0.70986669     0.10900
H194        H  0.73422875  0.89748110  0.66603574     0.07400
C195        C  0.26532413  0.93297788  0.66242075    -0.11700
C196        C  0.26651089  0.91195560  0.61518803     0.05500
C197        C  0.31317124  0.90512016  0.59267538    -0.10400
C198        C  0.35730161  0.91714965  0.61788263    -0.12100
C199        C  0.35565953  0.93565733  0.66633711    -0.01900
C200        C  0.30893976  0.94405796  0.68763040    -0.11000
C201        C  0.21989527  0.89081754  0.59364999     0.05500
H202        H  0.31558956  0.88933727  0.55601907     0.07400
H203        H  0.39246098  0.91049357  0.60018099     0.10900
H204        H  0.30576530  0.95863277  0.72472440     0.11100
H205        H  0.23060938  0.93825306  0.68141521     0.07400
C206        C  0.22130325  0.84423636  0.57169478    -0.11700
C207        C  0.17785624  0.81901504  0.56041879    -0.11000
C208        C  0.13081692  0.83944721  0.56952107    -0.01900
C209        C  0.12894664  0.88749531  0.58864220    -0.12100
C210        C  0.17309729  0.91282753  0.60086324    -0.10500
H211        H  0.25605761  0.82553374  0.56610072     0.07400
H212        H  0.18154505  0.78214659  0.54573113     0.11100
H213        H  0.09369872  0.90453288  0.59611559     0.10900
H214        H  0.17058396  0.94904249  0.61736610     0.07400
C215        C  0.76347455  0.16766535  0.58770718    -0.11700
C216        C  0.76267923  0.11609784  0.58523202     0.05500
C217        C  0.80679797  0.09132768  0.57353125    -0.10400
C218        C  0.85066132  0.11779456  0.56450876    -0.12100
C219        C  0.85113804  0.16947689  0.56716689    -0.01900
C220        C  0.80694153  0.19388048  0.57892910    -0.11000
C221        C  0.71697348  0.08902140  0.59982148     0.05500
H222        H  0.80732420  0.05152087  0.57137581     0.07400
H223        H  0.88387233  0.09799307  0.55487245     0.10900
H224        H  0.80580727  0.23366027  0.58148375     0.11100
H225        H  0.73065710  0.18787942  0.59785776     0.07400
C226        C  0.72006042  0.04963307  0.63315152    -0.11700
C227        C  0.67760027  0.03120028  0.65587419    -0.11000
C228        C  0.63085803  0.05117260  0.64546267    -0.01900
C229        C  0.62704119  0.08737731  0.60870015    -0.12100
C230        C  0.66981683  0.10635952  0.58625355    -0.10500
H231        H  0.75561822  0.03561096  0.64468378     0.07400
H232        H  0.68181543  0.00343844  0.68422652     0.11100
H233        H  0.59161616  0.10362975  0.60011712     0.10900
H234        H  0.66625683  0.13632653  0.56011277     0.07400
C235        C  0.30631713  0.08167432  0.59123218    -0.11700
C236        C  0.26089469  0.08380754  0.61640467     0.05500
C237        C  0.25969713  0.07271965  0.66691299    -0.10400
C238        C  0.30324553  0.06298086  0.69251528    -0.12100
C239        C  0.34915052  0.06295848  0.66810183    -0.01900
C240        C  0.35007444  0.07088615  0.61680847    -0.11000
C241        C  0.21679367  0.10623013  0.59319581     0.05500
H242        H  0.22542448  0.07474459  0.68737043     0.07400
H243        H  0.30089826  0.05643378  0.73191377     0.10900
H244        H  0.38467573  0.07048291  0.59684219     0.11100
H245        H  0.30811963  0.09020074  0.55217383     0.07400
C246        C  0.22182089  0.15239872  0.57076805    -0.11700
C247        C  0.18030262  0.17978314  0.55860696    -0.11000
C248        C  0.13241861  0.16131414  0.56720573    -0.01900
C249        C  0.12708903  0.11364961  0.58666943    -0.12100
C250        C  0.16906503  0.08650071  0.60017495    -0.10500
H251        H  0.25796741  0.16885736  0.56560882     0.07400
H252        H  0.18591191  0.21626890  0.54341223     0.11100
H253        H  0.09072638  0.09842894  0.59358284     0.10900
H254        H  0.16432779  0.05092027  0.61765690     0.07400
C255        C  0.69483276  0.91670530  0.41640888    -0.11700
C256        C  0.74080144  0.92112818  0.39213589     0.05500
C257        C  0.74178122  0.93945361  0.34390441    -0.10400
C258        C  0.69802085  0.95017713  0.31931338    -0.12100
C259        C  0.65174668  0.94429632  0.34253297    -0.01900
C260        C  0.65062039  0.92854714  0.39189769    -0.11000
C261        C  0.78626561  0.89850029  0.41266695     0.05500
H262        H  0.77625235  0.94244811  0.32387000     0.07400
H263        H  0.70069988  0.96231835  0.28129657     0.10900
H264        H  0.61575146  0.92377268  0.41084873     0.11100
H265        H  0.69306094  0.90244445  0.45374623     0.07400
C266        C  0.83345754  0.92028955  0.40702993    -0.11700
C267        C  0.87658077  0.89390583  0.41900196    -0.11000
C268        C  0.87293352  0.84508371  0.43571605    -0.01900
C269        C  0.82546509  0.82427946  0.44182342    -0.12100
C270        C  0.78305337  0.85066281  0.43128177    -0.10500
H271        H  0.83694172  0.95716322  0.39219684     0.07400
H272        H  0.91240525  0.91089472  0.41357402     0.11100
H273        H  0.82064105  0.78656584  0.45388321     0.10900
H274        H  0.74764949  0.83227351  0.43487322     0.07400
C275        C  0.28045311  0.90828767  0.34499848    -0.11700
C276        C  0.28405917  0.89133034  0.39358205     0.05500
C277        C  0.33075988  0.88908336  0.41644252    -0.10400
C278        C  0.37335295  0.90356444  0.39056031    -0.12100
C279        C  0.36959919  0.91905650  0.34120759    -0.01900
C280        C  0.32259773  0.92133061  0.31899682    -0.11000
C281        C  0.23956421  0.87000144  0.41668653     0.05500
H282        H  0.33421865  0.87540938  0.45387897     0.07400
H283        H  0.40903627  0.90132533  0.40849182     0.10900
H284        H  0.31811564  0.93300008  0.28099435     0.11100
H285        H  0.24507603  0.90930759  0.32626622     0.07400
C286        C  0.19457744  0.89572253  0.41655405    -0.11700
C287        C  0.15044887  0.87169395  0.42915605    -0.11000
C288        C  0.15071218  0.82141646  0.44120483    -0.01900
C289        C  0.19615683  0.79640790  0.44258743    -0.12100
C290        C  0.24007625  0.82055991  0.43101485    -0.10500
H291        H  0.19348841  0.93392995  0.40511559     0.07400
H292        H  0.11614998  0.89197006  0.42810572     0.11100
H293        H  0.19785360  0.75768336  0.45192952     0.10900
H294        H  0.27412081  0.79979764  0.43046101     0.07400
C295        C  0.67683724  0.09076757  0.42586985    -0.11700
C296        C  0.72359140  0.08863043  0.40307424     0.05500
C297        C  0.72651041  0.07429278  0.35355918    -0.10400
C298        C  0.68391948  0.06509800  0.32646829    -0.12100
C299        C  0.63693271  0.06797794  0.34838528    -0.01900
C300        C  0.63372517  0.07978385  0.39882866    -0.11000
C301        C  0.76836635  0.11005316  0.42629249     0.05500
H302        H  0.76171974  0.07330035  0.33466620     0.07400
H303        H  0.68807615  0.05594177  0.28774657     0.10900
H304        H  0.59810704  0.08224561  0.41672306     0.11100
H305        H  0.67367551  0.10233912  0.46404071     0.07400
C306        C  0.76601885  0.15805682  0.44481920    -0.11700
C307        C  0.80910842  0.18497845  0.45293666    -0.11000
C308        C  0.85584149  0.16428658  0.44391175    -0.01900
C309        C  0.85849178  0.11474993  0.42945316    -0.12100
C310        C  0.81497698  0.08791192  0.42031855    -0.10500
H311        H  0.73080848  0.17623757  0.44932777     0.07400
H312        H  0.80561722  0.22275951  0.46522311     0.11100
H313        H  0.89389652  0.09762903  0.42293722     0.10900
H314        H  0.81763840  0.05076716  0.40602024     0.07400
C315        C  0.31446589  0.08802910  0.41698215    -0.11700
C316        C  0.26774821  0.08230051  0.39441181     0.05500
C317        C  0.26486767  0.05712028  0.34931830    -0.10400
C318        C  0.30769809  0.04137158  0.32553893    -0.12100
C319        C  0.35480487  0.04933726  0.34649189    -0.01900
C320        C  0.35758226  0.07133183  0.39343697    -0.11000
C321        C  0.22336517  0.10842208  0.41353900     0.05500
H322        H  0.22970800  0.05250560  0.33070436     0.07400
H323        H  0.30385054  0.02459685  0.28943594     0.10900
H324        H  0.39309136  0.07798822  0.41069111     0.11100
H325        H  0.31775890  0.10712110  0.45198600     0.07400
C326        C  0.17619031  0.08608960  0.41428035    -0.11700
C327        C  0.13401839  0.11342555  0.42711710    -0.11000
C328        C  0.13820327  0.16379298  0.43850182    -0.01900
C329        C  0.18555017  0.18560821  0.43788428    -0.12100
C330        C  0.22737395  0.15831473  0.42612216    -0.10500
H331        H  0.17195031  0.04764188  0.40444600     0.07400
H332        H  0.09823592  0.09546964  0.42724503     0.11100
H333        H  0.19054412  0.22430263  0.44628015     0.10900
H334        H  0.26282208  0.17691829  0.42491773     0.07400
C335        C  0.59612886  0.68674626  0.10171858    -0.11700
C336        C  0.60963192  0.73197226  0.07973294     0.05500
C337        C  0.63839300  0.73127917  0.03675830    -0.10400
C338        C  0.65772677  0.68693029  0.01940351    -0.12100
C339        C  0.64806986  0.64226167  0.04410440    -0.01900
C340        C  0.61504062  0.64216378  0.08390414    -0.11000
C341        C  0.60057648  0.77926547  0.10588399     0.05500
H342        H  0.64938406  0.76534368  0.01900705     0.07400
H343        H  0.68301381  0.68798240  0.98843563     0.10900
H344        H  0.60718097  0.60838788  0.10373123     0.11100
H345        H  0.57329416  0.68621539  0.13453886     0.07400
C346        C  0.58503096  0.82222218  0.08111308    -0.11700
C347        C  0.57707202  0.86625193  0.10749482    -0.11000
C348        C  0.58511675  0.86785686  0.15883494    -0.01900
C349        C  0.60343836  0.82552155  0.18248926    -0.12100
C350        C  0.61063053  0.78196922  0.15658638    -0.10500
H351        H  0.57771517  0.82130107  0.04177031     0.07400
H352        H  0.56276117  0.89812431  0.08829618     0.11100
H353        H  0.61084604  0.82542082  0.22184295     0.10900
H354        H  0.62434368  0.75019051  0.17642248     0.07400
C355        C  0.55869646  0.23513104  0.16065013    -0.11700
C356        C  0.58331412  0.23211348  0.11538082     0.05500
C357        C  0.59078225  0.18562358  0.09368260    -0.10400
C358        C  0.57604963  0.14262533  0.11831950    -0.12100
C359        C  0.55467972  0.14565179  0.16542296    -0.01900
C360        C  0.54518259  0.19239771  0.18569626    -0.11000
C361        C  0.60842912  0.27637567  0.09586724     0.05500
H362        H  0.60989232  0.18260226  0.05868269     0.07400
H363        H  0.58372631  0.10717457  0.10178737     0.10900
H364        H  0.52863311  0.19607837  0.22189887     0.11100
H365        H  0.55304908  0.27043998  0.17833741     0.07400
C366        C  0.58375790  0.32158079  0.09073535    -0.11700
C367        C  0.60992144  0.36428872  0.07731836    -0.11000
C368        C  0.66120893  0.36237970  0.06989985    -0.01900
C369        C  0.68552067  0.31705379  0.07604250    -0.12100
C370        C  0.65940447  0.27458624  0.08808957    -0.10500
H371        H  0.54442193  0.32379145  0.09737977     0.07400
H372        H  0.59022834  0.39862588  0.07309172     0.11100
H373        H  0.72507620  0.31408836  0.07121082     0.10900
H374        H  0.67944457  0.24052774  0.09316254     0.07400
C375        C  0.66345740  0.80143128  0.82184749    -0.11700
C376        C  0.62877646  0.77149072  0.84705954     0.05500
C377        C  0.58661949  0.79479574  0.86644359    -0.10400
C378        C  0.57823308  0.84501592  0.85864563    -0.12100
C379        C  0.61060973  0.87371586  0.83004789    -0.01900
C380        C  0.65429207  0.85179003  0.81314292    -0.11000
C381        C  0.63612554  0.71664606  0.85328735     0.05500
H382        H  0.55840078  0.77406987  0.88566383     0.07400
H383        H  0.54441421  0.86093273  0.87228541     0.10900
H384        H  0.67963601  0.87257045  0.79021818     0.11100
H385        H  0.69720898  0.78584553  0.80754537     0.07400
C386        C  0.66445729  0.68876027  0.81956563    -0.11700
C387        C  0.67504128  0.63876655  0.82859569    -0.11000
C388        C  0.65694483  0.61517379  0.87110881    -0.01900
C389        C  0.62545821  0.64168546  0.90241089    -0.12100
C390        C  0.61554675  0.69150901  0.89400817    -0.10500
H391        H  0.68003944  0.70582878  0.78698238     0.07400
H392        H  0.70070682  0.61986815  0.80459324     0.11100
H393        H  0.61205935  0.62491999  0.93619151     0.10900
H394        H  0.59425519  0.71074683  0.92162743     0.07400
C395        C  0.58523314  0.18433439  0.90530327    -0.11700
C396        C  0.60029796  0.22564503  0.87726559     0.05500
C397        C  0.60714430  0.21978349  0.82638937    -0.10400
C398        C  0.59820043  0.17450920  0.80371948    -0.12100
C399        C  0.58105344  0.13343079  0.83083775    -0.01900
C400        C  0.57524214  0.13864299  0.88220730    -0.11000
C401        C  0.61382573  0.27374455  0.90046051     0.05500
H402        H  0.62019103  0.25027541  0.80404667     0.07400
H403        H  0.60368461  0.17210802  0.76414934     0.10900
H404        H  0.56148693  0.10816194  0.90407615     0.11100
H405        H  0.58038449  0.18771224  0.94487099     0.07400
C406        C  0.64937605  0.27479782  0.93798243    -0.11700
C407        C  0.67140207  0.31925384  0.95201755    -0.11000
C408        C  0.65722656  0.36440095  0.93068303    -0.01900
C409        C  0.61868110  0.36404661  0.89589745    -0.12100
C410        C  0.59767467  0.31895577  0.88036125    -0.10500
H411        H  0.66310131  0.24080167  0.95365351     0.07400
H412        H  0.70187954  0.31789355  0.97780839     0.11100
H413        H  0.60732563  0.39794961  0.87827435     0.10900
H414        H  0.57027973  0.31913662  0.85115218     0.07400
C415        C  0.84876515  0.64108008  0.67937776    -0.11700
C416        C  0.88061159  0.62037527  0.71487438     0.05500
C417        C  0.92689604  0.60304092  0.69860099    -0.10400
C418        C  0.94253475  0.61089176  0.64981827    -0.12100
C419        C  0.91340807  0.63796499  0.61693934    -0.01900
C420        C  0.86523240  0.65028496  0.63126227    -0.11000
C421        C  0.86624544  0.61861425  0.76846074     0.05500
H422        H  0.95270751  0.58639885  0.72406324     0.07400
H423        H  0.97927676  0.59996693  0.63925698     0.10900
H424        H  0.84199512  0.67153055  0.60668001     0.11100
H425        H  0.81194939  0.65273675  0.68927029     0.07400
C426        C  0.83377959  0.65380088  0.78890464    -0.11700
C427        C  0.81711816  0.64956103  0.83783173    -0.11000
C428        C  0.83317390  0.61060845  0.86762860    -0.01900
C429        C  0.86839342  0.57794900  0.84876843    -0.12100
C430        C  0.88449630  0.58159029  0.79984930    -0.10500
H431        H  0.82000462  0.68397377  0.76683004     0.07400
H432        H  0.78900050  0.67451033  0.85110486     0.11100
H433        H  0.88083644  0.54729056  0.87102173     0.10900
H434        H  0.90914393  0.55353021  0.78618317     0.07400
C435        C  0.88135842  0.60544010  0.29483061    -0.11700
C436        C  0.88311059  0.63923470  0.25537720     0.05500
C437        C  0.89401766  0.68871994  0.26511617    -0.10400
C438        C  0.90337977  0.70433181  0.31307370    -0.12100
C439        C  0.90215773  0.67089573  0.35266302    -0.01900
C440        C  0.89058764  0.62129976  0.34343891    -0.11000
C441        C  0.86971823  0.62470501  0.20447011     0.05500
H442        H  0.89552925  0.71540261  0.23538186     0.07400
H443        H  0.91248518  0.74276969  0.31915165     0.10900
H444        H  0.89029866  0.59479180  0.37333498     0.11100
H445        H  0.87233441  0.56711706  0.28805828     0.07400
C446        C  0.89122439  0.58387722  0.18106727    -0.11700
C447        C  0.87516965  0.56946057  0.13384448    -0.11000
C448        C  0.83646726  0.59475150  0.11068450    -0.01900
C449        C  0.81746244  0.63721936  0.13286260    -0.12100
C450        C  0.83410240  0.65223743  0.17909579    -0.10500
H451        H  0.91937871  0.56261946  0.19974278     0.07400
H452        H  0.89033213  0.53668823  0.11715197     0.11100
H453        H  0.78694232  0.65668268  0.11595765     0.10900
H454        H  0.81699128  0.68385173  0.19632759     0.18800
C455        C  0.92246536  0.43066278  0.68069226    -0.11700
C456        C  0.92266334  0.40748799  0.72736116     0.05500
C457        C  0.93394448  0.35737925  0.73018165    -0.10400
C458        C  0.94114606  0.33013537  0.68746899    -0.12100
C459        C  0.93847628  0.35226048  0.64045555    -0.01900
C460        C  0.93072122  0.40324193  0.63743860    -0.11000
C461        C  0.90146385  0.43140523  0.77165166     0.05500
H462        H  0.93367820  0.33823142  0.76529670     0.07400
H463        H  0.94789595  0.29107440  0.69156849     0.10900
H464        H  0.92921762  0.42140856  0.60185969     0.11100
H465        H  0.91385402  0.46944774  0.67763036     0.07400
C466        C  0.92077683  0.42235046  0.81921184    -0.11700
C467        C  0.89264806  0.43243903  0.86145665    -0.11000
C468        C  0.84472592  0.45122076  0.85652353    -0.01900
C469        C  0.82740933  0.46394566  0.80918565    -0.12100
C470        C  0.85551036  0.45439209  0.76732587    -0.10500
H471        H  0.95633314  0.40478578  0.82349359     0.07400
H472        H  0.90718092  0.42303751  0.89753053     0.11100
H473        H  0.79108643  0.47970333  0.80419711     0.10900
H474        H  0.83943011  0.46143840  0.73135614     0.07400
C475        C  0.85340156  0.45319069  0.22681690    -0.11700
C476        C  0.89585454  0.42398815  0.22357463     0.05500
C477        C  0.91395240  0.41185361  0.17621920    -0.10400
C478        C  0.88773361  0.42503636  0.13345089    -0.12100
C479        C  0.84290442  0.45043225  0.13734154    -0.01900
C480        C  0.82718554  0.46600145  0.18432591    -0.11000
C481        C  0.91562333  0.39983410  0.26897719     0.05500
H482        H  0.94716539  0.39017701  0.17236804     0.07400
H483        H  0.90111288  0.41313615  0.09771914     0.10900
H484        H  0.79336196  0.48669028  0.18847122     0.11100
H485        H  0.83824736  0.46319286  0.26240155     0.07400
C486        C  0.91623470  0.42381942  0.31530594    -0.11700
C487        C  0.92692463  0.39761268  0.35890957    -0.11000
C488        C  0.93667209  0.34687543  0.35696343    -0.01900
C489        C  0.93739291  0.32365894  0.31040259    -0.12100
C490        C  0.92759780  0.34971897  0.26722739    -0.10500
H491        H  0.90741818  0.46257539  0.31792494     0.07400
H492        H  0.92644636  0.41669377  0.39403962     0.11100
H493        H  0.94500944  0.28469555  0.30708825     0.10900
H494        H  0.92670456  0.32966277  0.23264785     0.07400
C495        C  0.42994267  0.68416242  0.92514339    -0.11700
C496        C  0.40858506  0.73114980  0.93058696     0.05500
C497        C  0.36156595  0.73461207  0.95164858    -0.10400
C498        C  0.33490237  0.69235889  0.96338930    -0.12100
C499        C  0.35475249  0.64520777  0.95551762    -0.01900
C500        C  0.40331483  0.64145238  0.93787769    -0.11000
C501        C  0.43003666  0.77552108  0.90651382     0.05500
H502        H  0.34372023  0.76996080  0.95579981     0.07400
H503        H  0.29779562  0.69685469  0.97745494     0.10900
H504        H  0.41976221  0.60570265  0.93183702     0.11100
H505        H  0.46635301  0.68044631  0.90914375     0.07400
C506        C  0.42576301  0.82264547  0.92802854    -0.11700
C507        C  0.43440105  0.86533996  0.89999472    -0.11000
C508        C  0.44713320  0.86147348  0.84991324    -0.01900
C509        C  0.45475091  0.81425177  0.82972641    -0.12100
C510        C  0.44649769  0.77196280  0.85763325    -0.10500
H511        H  0.41343945  0.82647221  0.96580938     0.07400
H512        H  0.42911909  0.90109874  0.91681885     0.11100
H513        H  0.46570177  0.80969697  0.79153129     0.10900
H514        H  0.44971661  0.73646551  0.83971013     0.07400
C515        C  0.41527176  0.18795353  0.91567305    -0.11700
C516        C  0.42811293  0.23375701  0.89466655     0.05500
C517        C  0.45665590  0.23449788  0.85158315    -0.10400
C518        C  0.46727901  0.19059751  0.82697718    -0.12100
C519        C  0.45039418  0.14496806  0.84539595    -0.01900
C520        C  0.42660788  0.14382590  0.89137545    -0.11000
C521        C  0.40260548  0.27924893  0.91065480     0.05500
H522        H  0.46692959  0.26915938  0.83455141     0.07400
H523        H  0.48657646  0.19261177  0.79200806     0.10900
H524        H  0.41355808  0.10929732  0.90666714     0.11100
H525        H  0.39339189  0.18653734  0.94912389     0.07400
C526        C  0.42745879  0.32445051  0.91776682    -0.11700
C527        C  0.40072341  0.36754146  0.92854151    -0.11000
C528        C  0.34882566  0.36600417  0.93104194    -0.01900
C529        C  0.32463053  0.32075211  0.92281864    -0.12100
C530        C  0.35105222  0.27812750  0.91341165    -0.10500
H531        H  0.46731860  0.32631016  0.91500698     0.07400
H532        H  0.42043254  0.40177184  0.93477669     0.11100
H533        H  0.28476672  0.31784676  0.92411540     0.10900
H534        H  0.33083103  0.24424136  0.90672012     0.07400
C535        C  0.35863642  0.72390416  0.08694392    -0.11700
C536        C  0.41016884  0.72226276  0.08926742     0.05500
C537        C  0.43381951  0.67621265  0.08559037    -0.10400
C538        C  0.40587986  0.63272196  0.07941908    -0.12100
C539        C  0.35402304  0.63485386  0.07801245    -0.01900
C540        C  0.33110406  0.68105959  0.08204128    -0.11000
C541        C  0.43670765  0.76796567  0.10367098     0.05500
H542        H  0.47365656  0.67393062  0.08802790     0.07400
H543        H  0.42460440  0.59775765  0.07603873     0.10900
H544        H  0.29131264  0.68456856  0.08100926     0.11100
H545        H  0.33915647  0.75838406  0.09114279     0.07400
C546        C  0.42218018  0.81398558  0.08440140    -0.11700
C547        C  0.43392940  0.85779644  0.10934289    -0.11000
C548        C  0.45974506  0.85591481  0.15422292    -0.01900
C549        C  0.47830071  0.81033134  0.17051061    -0.12100
C550        C  0.46757045  0.76696182  0.14514084    -0.10500
H551        H  0.39827003  0.81566825  0.05236643     0.07400
H552        H  0.41950597  0.89236637  0.09574728     0.11100
H553        H  0.49902983  0.80774547  0.20466671     0.10900
H554        H  0.47921412  0.73227361  0.16097871     0.07400
C555        C  0.41890172  0.22380171  0.16406300    -0.11700
C556        C  0.41266137  0.22216235  0.11273865     0.05500
C557        C  0.41531550  0.17642622  0.08833789    -0.10400
C558        C  0.42401962  0.13305852  0.11511883    -0.12100
C559        C  0.42920723  0.13483818  0.16671398    -0.01900
C560        C  0.42644892  0.18076998  0.19070844    -0.11000
C561        C  0.39647214  0.26727848  0.08686979     0.05500
H562        H  0.41011565  0.17426557  0.04870270     0.07400
H563        H  0.42619729  0.09829853  0.09566176     0.10900
H564        H  0.43046239  0.18375861  0.23042915     0.11100
H565        H  0.41588719  0.25825010  0.18400076     0.07400
C566        C  0.41775284  0.31344661  0.09799455    -0.11700
C567        C  0.39450052  0.35705200  0.08327098    -0.11000
C568        C  0.34928078  0.35488753  0.05804545    -0.01900
C569        C  0.33017640  0.30864304  0.04399210    -0.12100
C570        C  0.35379199  0.26537665  0.05771071    -0.10500
H571        H  0.45089394  0.31572278  0.12035171     0.07400
H572        H  0.41009909  0.39214784  0.09439384     0.11100
H573        H  0.29547772  0.30571721  0.02423414     0.10900
H574        H  0.33637644  0.23045285  0.04892933     0.07400
C575        C  0.08964911  0.59013513  0.83279570    -0.11700
C576        C  0.11334802  0.59456452  0.78666507     0.05500
C577        C  0.16455025  0.58881396  0.78417335    -0.10400
C578        C  0.19181641  0.57986632  0.82661843    -0.12100
C579        C  0.16871358  0.57542824  0.87298073    -0.01900
C580        C  0.11715861  0.58012915  0.87572010    -0.11000
C581        C  0.08698507  0.61112319  0.74175425     0.05500
H582        H  0.18396307  0.59314225  0.74946164     0.07400
H583        H  0.23142421  0.57630926  0.82277349     0.10900
H584        H  0.09834044  0.57651174  0.91080890     0.11100
H585        H  0.05007424  0.59481213  0.83558117     0.07400
C586        C  0.09784856  0.59037998  0.69531941    -0.11700
C587        C  0.08257559  0.61357649  0.65173657    -0.11000
C588        C  0.05648003  0.65798629  0.65407300    -0.01900
C589        C  0.04280673  0.67671515  0.70054834    -0.12100
C590        C  0.05767753  0.65339002  0.74392788    -0.10500
H591        H  0.12024699  0.55754553  0.69280808     0.07400
H592        H  0.09308497  0.59811170  0.61642244     0.11100
H593        H  0.02183515  0.71044330  0.70343713     0.10900
H594        H  0.04912863  0.67034445  0.77910265     0.07400
C595        C  0.10257324  0.57342102  0.33398607    -0.11700
C596        C  0.08623018  0.58936169  0.28703607     0.05500
C597        C  0.04972066  0.62574428  0.28488532    -0.10400
C598        C  0.03431182  0.64943035  0.32799174    -0.12100
C599        C  0.05434192  0.63687567  0.37438549    -0.01900
C600        C  0.08666716  0.59689444  0.37732466    -0.11000
C601        C  0.11300347  0.57465966  0.24116876     0.05500
H602        H  0.03632506  0.63912408  0.24965400     0.07400
H603        H  0.00940181  0.68027339  0.32454784     0.10900
H604        H  0.10287418  0.58661241  0.41242981     0.11100
H605        H  0.13019940  0.54493537  0.33702408     0.07400
C606        C  0.16463947  0.57151322  0.24255382    -0.11700
C607        C  0.19157763  0.56290410  0.19974068    -0.11000
C608        C  0.16800336  0.55695938  0.15374718    -0.01900
C609        C  0.11619527  0.55975215  0.15182907    -0.12100
C610        C  0.08890415  0.56866605  0.19519844    -0.10500
H611        H  0.18472665  0.57740628  0.27669139     0.07400
H612        H  0.23139779  0.56127843  0.20287312     0.11100
H613        H  0.09691120  0.55493909  0.11706256     0.10900
H614        H  0.04907895  0.57101049  0.19279220     0.07400
C615        C  0.15834696  0.44724077  0.77144754    -0.11700
C616        C  0.11151680  0.42543448  0.77512820     0.05500
C617        C  0.09022530  0.41983938  0.82234323    -0.10400
C618        C  0.11669001  0.43285696  0.86510573    -0.12100
C619        C  0.16513399  0.45102849  0.86132986    -0.01900
C620        C  0.18494108  0.45943842  0.81393519    -0.11000
C621        C  0.08931160  0.40142503  0.73088699     0.05500
H622        H  0.05392641  0.40341955  0.82620400     0.07400
H623        H  0.10023723  0.42643297  0.90098690     0.10900
H624        H  0.22195797  0.47401792  0.80952388     0.11100
H625        H  0.17593248  0.45172922  0.73580174     0.07400
C626        C  0.09009431  0.42395061  0.68391925    -0.11700
C627        C  0.07608937  0.39740125  0.64142492    -0.11000
C628        C  0.06196385  0.34766559  0.64518896    -0.01900
C629        C  0.06005673  0.32599230  0.69245762    -0.12100
C630        C  0.07304845  0.35253335  0.73458050    -0.10500
H631        H  0.10254924  0.46169936  0.68002027     0.07400
H632        H  0.07763480  0.41526847  0.60568893     0.11100
H633        H  0.04906749  0.28787947  0.69710015     0.10900
H634        H  0.07278802  0.33380778  0.76992050     0.07400
C635        C  0.06669379  0.35108789  0.27290158    -0.11700
C636        C  0.08704033  0.39840282  0.27526758     0.05500
C637        C  0.09215215  0.42139818  0.32178402    -0.10400
C638        C  0.07900692  0.39630340  0.36532093    -0.12100
C639        C  0.06178389  0.34752006  0.36272859    -0.01900
C640        C  0.05497035  0.32582475  0.31590785    -0.11000
C641        C  0.11105214  0.41842342  0.23037683     0.05500
H642        H  0.10813461  0.45789297  0.32445338     0.07400
H643        H  0.08445546  0.41404431  0.40076647     0.10900
H644        H  0.04144925  0.28840461  0.31223679     0.11100
H645        H  0.06308041  0.33208653  0.23786670     0.07400
C646        C  0.16079512  0.43213978  0.23312243    -0.11700
C647        C  0.18800601  0.43952152  0.19023497    -0.11000
C648        C  0.16609143  0.43447285  0.14320007    -0.01900
C649        C  0.11545627  0.42363070  0.14022587    -0.12100
C650        C  0.08820391  0.41519354  0.18357779    -0.10500
H651        H  0.17959140  0.43414621  0.26844564     0.07400
H652        H  0.22676490  0.44873450  0.19414762     0.11100
H653        H  0.09746824  0.42006926  0.10463389     0.10900
H654        H  0.04975814  0.40440392  0.18059594     0.07400
loop_ 
_geom_bond_atom_site_label_1 
_geom_bond_atom_site_label_2 
_geom_bond_distance 
_geom_bond_site_symmetry_2 
_ccdc_geom_bond_type 
O1            C9   1.273       .  A
O1          Co21   1.996   1_554  S
O2           C10   1.272       .  A
O2          Co22   1.990   1_556  S
O3           C11   1.276       .  A
O3          Co23   2.022       .  S
O4           C12   1.274       .  A
O4          Co24   2.018       .  S
O5           C11   1.273       .  A
O5          Co22   1.989       .  S
O6           C12   1.273       .  A
O6          Co21   1.986       .  S
O7           C10   1.270       .  A
O7          Co24   2.005       .  S
O8            C9   1.269       .  A
O8          Co23   2.005       .  S
C9          C648   1.484       .  S
C10         C579   1.481       .  S
C11         C608   1.488       .  S
C12         C619   1.486       .  S
O13          C26   1.272       .  A
O13         Co21   2.013       .  S
O14          C27   1.269       .  A
O14         Co22   2.006       .  S
O15          C28   1.273       .  A
O15         Co23   1.983       .  S
O16          C29   1.273       .  A
O16         Co24   1.986       .  S
O17          C29   1.274       .  A
O17         Co22   2.015   1_556  S
O18          C28   1.273       .  A
O18         Co21   2.009   1_554  S
O19          C26   1.272       .  A
O19         Co24   1.992       .  S
O20          C27   1.271       .  A
O20         Co23   1.994       .  S
Co21         O25   2.100   1_556  S
Co22         O25   2.098       .  S
Co23         O25   2.101       .  S
Co24         O25   2.102   1_556  S
C26         C528   1.487       .  S
C27         C539   1.484       .  S
C28         C568   1.478       .  S
C29         C499   1.484       .  S
O30          C38   1.275       .  A
O30         Co50   2.009       .  S
O31          C39   1.290       .  A
O31         Co51   2.117       .  S
O32          C40   1.275       .  A
O32         Co52   2.004       .  S
O33          C41   1.275       .  A
O33         Co53   1.989   1_554  S
O34          C40   1.270       .  A
O34         Co51   1.985       .  S
O35          C41   1.275       .  A
O35         Co50   2.000       .  S
O36          C39   1.273       .  A
O36         Co53   1.916       .  S
O37          C38   1.275       .  A
O37         Co52   1.991   1_554  S
C38         C479   1.484       .  S
C39         C428   1.473       .  S
C40         C468   1.478       .  S
C41         C448   1.464       .  S
O42          C55   1.277       .  A
O42         Co50   2.008       .  S
O43          C56   1.283       .  A
O43         Co51   2.009       .  S
O44          C57   1.276       .  A
O44         Co52   2.004   1_554  S
O45          C58   1.290       .  A
O45         Co53   2.106       .  S
O46          C58   1.278       .  A
O46         Co51   1.928       .  S
O47          C57   1.276       .  A
O47         Co50   1.991       .  S
O48          C55   1.270       .  A
O48         Co53   1.986   1_554  S
O49          C56   1.277       .  A
O49         Co52   2.006       .  S
Co50         O54   2.022   1_554  S
Co51         O54   1.984       .  S
Co52         O54   2.014       .  S
Co53         O54   1.973       .  S
C55         C339   1.479       .  S
C56         C408   1.492       .  S
C57         C368   1.482       .  S
C58         C388   1.482       .  S
O59          C67   1.276       .  A
O59         Co79   1.996       .  S
O60          C68   1.276       .  A
O60         Co80   1.996       .  S
O61          C69   1.269       .  A
O61         Co81   1.997       .  S
O62          C70   1.271       .  A
O62         Co82   2.007       .  S
O63          C69   1.273       .  A
O63         Co80   1.992       .  S
O64          C70   1.273       .  A
O64         Co79   1.994       .  S
O65          C68   1.271       .  A
O65         Co82   2.005   1_565  S
O66          C67   1.276       .  A
O66         Co81   2.022   1_545  S
C67         C319   1.494       .  S
C68         C259   1.487       .  S
C69         C279   1.479       .  S
C70         C299   1.484       .  S
O71          C84   1.275       .  A
O71         Co79   2.018       .  S
O72          C85   1.273       .  A
O72         Co80   2.011       .  S
O73          C86   1.272       .  A
O73         Co81   1.989   1_545  S
O74          C87   1.274       .  A
O74         Co82   2.000   1_565  S
O75          C87   1.271       .  A
O75         Co80   2.009       .  S
O76          C86   1.269       .  A
O76         Co79   2.005       .  S
O77          C84   1.272       .  A
O77         Co82   1.976       .  S
O78          C85   1.274       .  A
O78         Co81   1.988       .  S
Co79         O83   2.106   1_545  S
Co80         O83   2.100       .  S
Co81         O83   2.099       .  S
Co82         O83   2.098   1_545  S
C84         C359   1.479       .  S
C85         C548   1.480       .  S
C86         C559   1.481       .  S
C87         C348   1.487       .  S
O88          C96   1.275       .  A
O88        Co108   2.006       .  S
O89          C97   1.290       .  A
O89        Co109   2.108       .  S
O90          C98   1.280       .  A
O90        Co110   2.008       .  S
O91          C99   1.283       .  A
O91        Co111   2.010       .  S
O92          C98   1.274       .  A
O92        Co109   1.990   1_545  S
O93          C99   1.278       .  A
O93        Co108   2.009   1_565  S
O94          C97   1.278       .  A
O94        Co111   1.927       .  S
O95          C96   1.277       .  A
O95        Co110   1.995       .  S
C96         C239   1.485       .  S
C97         C188   1.485       .  S
C98         C228   1.482       .  S
C99         C199   1.496       .  S
O100        C113   1.280       .  A
O100       Co108   2.017   1_565  S
O101        C114   1.285       .  A
O101       Co109   2.023   1_545  S
O102        C115   1.277       .  A
O102       Co110   2.008       .  S
O103        C116   1.294       .  A
O103       Co111   2.134       .  S
O104        C116   1.279       .  A
O104       Co109   1.926       .  S
O105        C115   1.279       .  A
O105       Co108   1.997       .  S
O106        C113   1.270       .  A
O106       Co111   1.982       .  S
O107        C114   1.273       .  A
O107       Co110   1.996       .  S
Co108       O112   2.017       .  S
Co109       O112   1.967   1_565  S
Co110       O112   2.015       .  S
Co111       O112   1.975   1_565  S
C113        C508   1.484       .  S
C114        C399   1.495       .  S
C115        C519   1.484       .  S
C116        C379   1.488       .  S
O117        C125   1.274       .  A
O117       Co137   1.992       .  S
O118        C126   1.274       .  A
O118       Co138   1.994       .  S
O119        C127   1.272       .  A
O119       Co139   2.015       .  S
O120        C128   1.273       .  A
O120       Co140   2.017   1_455  S
O121        C127   1.274       .  A
O121       Co138   1.997       .  S
O122        C128   1.273       .  A
O122       Co137   1.993       .  S
O123        C126   1.270       .  A
O123       Co140   2.003       .  S
O124        C125   1.272       .  A
O124       Co139   2.005   1_455  S
C125        C639   1.483       .  S
C126        C459   1.483       .  S
C127        C488   1.491       .  S
C128        C628   1.489       .  S
O129        C142   1.273       .  A
O129       Co137   2.011       .  S
O130        C143   1.272       .  A
O130       Co138   2.011       .  S
O131        C144   1.275       .  A
O131       Co139   1.996   1_455  S
O132        C145   1.274       .  A
O132       Co140   1.993       .  S
O133        C145   1.273       .  A
O133       Co138   2.019       .  S
O134        C144   1.273       .  A
O134       Co137   2.016       .  S
O135        C142   1.273       .  A
O135       Co140   1.989   1_455  S
O136        C143   1.274       .  A
O136       Co139   1.990       .  S
Co137       O141   2.104   1_455  S
Co138       O141   2.105       .  S
Co139       O141   2.099       .  S
Co140       O141   2.099       .  S
C142        C248   1.483       .  S
C143        C308   1.483       .  S
C144        C328   1.492       .  S
C145        C219   1.488       .  S
O146        C154   1.268       .  A
O146       Co166   1.992       .  S
O147        C155   1.280       .  A
O147       Co167   2.015       .  S
O148        C156   1.269       .  A
O148       Co168   1.987       .  S
O149        C157   1.287       .  A
O149       Co169   1.913       .  S
O150        C156   1.265       .  A
O150       Co167   1.993   1_455  S
O151        C157   1.303       .  A
O151       Co166   2.100   1_655  S
O152        C155   1.283       .  A
O152       Co169   1.992       .  S
O153        C154   1.274       .  A
O153       Co168   2.005       .  S
C154        C599   1.482       .  S
C155        C419   1.473       .  S
C156        C588   1.476       .  S
C157        C439   1.471       .  S
O158        C171   1.254       .  A
O158       Co166   1.995   1_655  S
O159        C172   1.294       .  A
O159       Co167   2.029   1_455  S
O160        C173   1.268       .  A
O160       Co168   2.002       .  S
O161        C174   1.280       .  A
O161       Co169   2.005       .  S
O162        C174   1.291       .  A
O162       Co167   2.020       .  S
O163        C173   1.268       .  A
O163       Co166   1.987       .  S
O164        C171   1.254       .  A
O164       Co169   2.033       .  S
O165        C172   1.281       .  A
O165       Co168   2.005       .  S
Co166       O170   2.097       .  S
Co167       O170   2.057   1_655  S
Co168       O170   2.051       .  S
Co169       O170   1.954   1_655  S
C171        C268   1.489       .  S
C172        C208   1.502       .  S
C173        C288   1.481       .  S
C174        C179   1.491       .  S
C175        C176   1.399       .  A
C175        C180   1.396       .  A
C175        H185   1.083       .  S
C176        C181   1.493       .  S
C176        C177   1.415       .  A
C177        C178   1.406       .  A
C177        H182   1.083       .  S
C178        C179   1.402       .  A
C178        H183   1.083       .  S
C179        C180   1.413       .  A
C180        H184   1.083       .  S
C181        C186   1.417       .  A
C181        C190   1.397       .  A
C186        C187   1.414       .  A
C186        H191   1.083       .  S
C187        C188   1.404       .  A
C187        H192   1.083       .  S
C188        C189   1.408       .  A
C189        C190   1.385       .  A
C189        H193   1.083       .  S
C190        H194   1.083       .  S
C195        C196   1.400       .  A
C195        C200   1.395       .  A
C195        H205   1.083       .  S
C196        C201   1.501       .  S
C196        C197   1.417       .  A
C197        C198   1.412       .  A
C197        H202   1.083       .  S
C198        C199   1.405       .  A
C198        H203   1.083       .  S
C199        C200   1.411       .  A
C200        H204   1.083       .  S
C201        C206   1.398       .  A
C201        C210   1.418       .  A
C206        C207   1.392       .  A
C206        H211   1.083       .  S
C207        C208   1.414       .  A
C207        H212   1.082       .  S
C208        C209   1.405       .  A
C209        C210   1.415       .  A
C209        H213   1.082       .  S
C210        H214   1.082       .  S
C215        C216   1.402       .  A
C215        C220   1.393       .  A
C215        H225   1.083       .  S
C216        C221   1.490       .  S
C216        C217   1.411       .  A
C217        C218   1.407       .  A
C217        H222   1.083       .  S
C218        C219   1.405       .  A
C218        H223   1.083       .  S
C219        C220   1.408       .  A
C220        H224   1.083       .  S
C221        C226   1.402       .  A
C221        C230   1.412       .  A
C226        C227   1.396       .  A
C226        H231   1.083       .  S
C227        C228   1.408       .  A
C227        H232   1.082       .  S
C228        C229   1.403       .  A
C229        C230   1.405       .  A
C229        H233   1.083       .  S
C230        H234   1.083       .  S
C235        C236   1.409       .  A
C235        C240   1.404       .  A
C235        H245   1.083       .  S
C236        C241   1.482       .  S
C236        C237   1.400       .  A
C237        C238   1.393       .  A
C237        H242   1.083       .  S
C238        C239   1.409       .  A
C238        H243   1.083       .  S
C239        C240   1.405       .  A
C240        H244   1.083       .  S
C241        C246   1.399       .  A
C241        C250   1.410       .  A
C246        C247   1.390       .  A
C246        H251   1.083       .  S
C247        C248   1.408       .  A
C247        H252   1.083       .  S
C248        C249   1.404       .  A
C249        C250   1.406       .  A
C249        H253   1.083       .  S
C250        H254   1.083       .  S
C255        C256   1.413       .  A
C255        C260   1.407       .  A
C255        H265   1.083       .  S
C256        C261   1.486       .  S
C256        C257   1.397       .  A
C257        C258   1.390       .  A
C257        H262   1.083       .  S
C258        C259   1.411       .  A
C258        H263   1.083       .  S
C259        C260   1.403       .  A
C260        H264   1.083       .  S
C261        C266   1.414       .  A
C261        C270   1.396       .  A
C266        C267   1.411       .  A
C266        H271   1.083       .  S
C267        C268   1.404       .  A
C267        H272   1.083       .  S
C268        C269   1.412       .  A
C269        C270   1.386       .  A
C269        H273   1.082       .  S
C270        H274   1.083       .  S
C275        C276   1.396       .  A
C275        C280   1.386       .  A
C275        H285   1.084       .  S
C276        C281   1.475       .  S
C276        C277   1.409       .  A
C277        C278   1.405       .  A
C277        H282   1.083       .  S
C278        C279   1.404       .  A
C278        H283   1.083       .  S
C279        C280   1.408       .  A
C280        H284   1.083       .  S
C281        C286   1.408       .  A
C281        C290   1.398       .  A
C286        C287   1.401       .  A
C286        H291   1.083       .  S
C287        C288   1.404       .  A
C287        H292   1.083       .  S
C288        C289   1.409       .  A
C289        C290   1.392       .  A
C289        H293   1.083       .  S
C290        H294   1.083       .  S
C295        C296   1.411       .  A
C295        C300   1.408       .  A
C295        H305   1.083       .  S
C296        C301   1.481       .  S
C296        C297   1.398       .  A
C297        C298   1.387       .  A
C297        H302   1.083       .  S
C298        C299   1.408       .  A
C298        H303   1.083       .  S
C299        C300   1.405       .  A
C300        H304   1.083       .  S
C301        C306   1.398       .  A
C301        C310   1.411       .  A
C306        C307   1.391       .  A
C306        H311   1.083       .  S
C307        C308   1.409       .  A
C307        H312   1.083       .  S
C308        C309   1.403       .  A
C309        C310   1.404       .  A
C309        H313   1.083       .  S
C310        H314   1.083       .  S
C315        C316   1.412       .  A
C315        C320   1.408       .  A
C315        H325   1.083       .  S
C316        C321   1.492       .  S
C316        C317   1.400       .  A
C317        C318   1.397       .  A
C317        H322   1.083       .  S
C318        C319   1.411       .  A
C318        H323   1.082       .  S
C319        C320   1.405       .  A
C320        H324   1.083       .  S
C321        C326   1.412       .  A
C321        C330   1.401       .  A
C326        C327   1.409       .  A
C326        H331   1.083       .  S
C327        C328   1.406       .  A
C327        H332   1.083       .  S
C328        C329   1.410       .  A
C329        C330   1.394       .  A
C329        H333   1.083       .  S
C330        H334   1.083       .  S
C335        C336   1.412       .  A
C335        C340   1.403       .  A
C335        H345   1.083       .  S
C336        C341   1.488       .  S
C336        C337   1.401       .  A
C337        C338   1.397       .  A
C337        H342   1.083       .  S
C338        C339   1.409       .  A
C338        H343   1.083   1_554  S
C339        C340   1.401       .  A
C340        H344   1.083       .  S
C341        C346   1.411       .  A
C341        C350   1.400       .  A
C346        C347   1.410       .  A
C346        H351   1.083       .  S
C347        C348   1.406       .  A
C347        H352   1.083       .  S
C348        C349   1.408       .  A
C349        C350   1.389       .  A
C349        H353   1.083       .  S
C350        H354   1.083       .  S
C355        C356   1.398       .  A
C355        C360   1.392       .  A
C355        H365   1.083       .  S
C356        C361   1.476       .  S
C356        C357   1.408       .  A
C357        C358   1.401       .  A
C357        H362   1.083       .  S
C358        C359   1.403       .  A
C358        H363   1.083       .  S
C359        C360   1.408       .  A
C360        H364   1.083       .  S
C361        C366   1.407       .  A
C361        C370   1.398       .  A
C366        C367   1.404       .  A
C366        H371   1.083       .  S
C367        C368   1.405       .  A
C367        H372   1.083       .  S
C368        C369   1.409       .  A
C369        C370   1.389       .  A
C369        H373   1.083       .  S
C370        H374   1.083       .  S
C375        C376   1.415       .  A
C375        C380   1.411       .  A
C375        H385   1.082       .  S
C376        C381   1.513       .  S
C376        C377   1.410       .  A
C377        C378   1.400       .  A
C377        H382   1.081       .  S
C378        C379   1.404       .  A
C378        H383   1.080       .  S
C379        C380   1.405       .  A
C380        H384   1.083       .  S
C381        C386   1.415       .  A
C381        C390   1.410       .  A
C386        C387   1.410       .  A
C386        H391   1.082       .  S
C387        C388   1.405       .  A
C387        H392   1.083       .  S
C388        C389   1.404       .  A
C389        C390   1.399       .  A
C389        H393   1.084       .  S
C390        H394   1.081       .  S
C395        C396   1.413       .  A
C395        C400   1.414       .  A
C395        H405   1.083       .  S
C396        C401   1.493       .  S
C396        C397   1.399       .  A
C397        C398   1.394       .  A
C397        H402   1.083       .  S
C398        C399   1.412       .  A
C398        H403   1.083       .  S
C399        C400   1.406       .  A
C400        H404   1.083       .  S
C401        C406   1.398       .  A
C401        C410   1.414       .  A
C406        C407   1.396       .  A
C406        H411   1.083       .  S
C407        C408   1.410       .  A
C407        H412   1.081       .  S
C408        C409   1.404       .  A
C409        C410   1.411       .  A
C409        H413   1.083       .  S
C410        H414   1.083       .  S
C415        C416   1.409       .  A
C415        C420   1.399       .  A
C415        H425   1.082       .  S
C416        C421   1.503       .  S
C416        C417   1.413       .  A
C417        C418   1.403       .  A
C417        H422   1.081       .  S
C418        C419   1.399       .  A
C418        H423   1.079       .  S
C419        C420   1.404       .  A
C420        H424   1.083       .  S
C421        C426   1.415       .  A
C421        C430   1.407       .  A
C426        C427   1.404       .  A
C426        H431   1.082       .  S
C427        C428   1.401       .  A
C427        H432   1.084       .  S
C428        C429   1.403       .  A
C429        C430   1.398       .  A
C429        H433   1.082       .  S
C430        H434   1.081       .  S
C435        C436   1.409       .  A
C435        C440   1.405       .  A
C435        H445   1.083       .  S
C436        C441   1.477       .  S
C436        C437   1.399       .  A
C437        C438   1.388       .  A
C437        H442   1.084       .  S
C438        C439   1.405       .  A
C438        H443   1.084       .  S
C439        C440   1.403       .  A
C440        H444   1.083       .  S
C441        C446   1.406       .  A
C441        C450   1.402       .  A
C446        C447   1.404       .  A
C446        H451   1.083       .  S
C447        C448   1.403       .  A
C447        H452   1.081       .  S
C448        C449   1.401       .  A
C449        C450   1.389       .  A
C449        H453   1.084       .  S
C450        H454   1.084       .  S
C455        C456   1.411       .  A
C455        C460   1.406       .  A
C455        H465   1.083       .  S
C456        C461   1.481       .  S
C456        C457   1.398       .  A
C457        C458   1.387       .  A
C457        H462   1.083       .  S
C458        C459   1.409       .  A
C458        H463   1.083       .  S
C459        C460   1.404       .  A
C460        H464   1.083       .  S
C461        C466   1.410       .  A
C461        C470   1.400       .  A
C466        C467   1.403       .  A
C466        H471   1.083       .  S
C467        C468   1.403       .  A
C467        H472   1.083       .  S
C468        C469   1.407       .  A
C469        C470   1.391       .  A
C469        H473   1.083       .  S
C470        H474   1.083       .  S
C475        C476   1.403       .  A
C475        C480   1.395       .  A
C475        H485   1.082       .  S
C476        C481   1.493       .  S
C476        C477   1.412       .  A
C477        C478   1.404       .  A
C477        H482   1.083       .  S
C478        C479   1.404       .  A
C478        H483   1.083       .  S
C479        C480   1.407       .  A
C480        H484   1.083       .  S
C481        C486   1.413       .  A
C481        C490   1.401       .  A
C486        C487   1.408       .  A
C486        H491   1.083       .  S
C487        C488   1.405       .  A
C487        H492   1.083       .  S
C488        C489   1.409       .  A
C489        C490   1.392       .  A
C489        H493   1.083       .  S
C490        H494   1.083       .  S
C495        C496   1.411       .  A
C495        C500   1.406       .  A
C495        H505   1.083       .  S
C496        C501   1.486       .  S
C496        C497   1.400       .  A
C497        C498   1.390       .  A
C497        H502   1.083       .  S
C498        C499   1.408       .  A
C498        H503   1.083       .  S
C499        C500   1.404       .  A
C500        H504   1.083       .  S
C501        C506   1.411       .  A
C501        C510   1.400       .  A
C506        C507   1.404       .  A
C506        H511   1.081       .  S
C507        C508   1.403       .  A
C507        H512   1.083       .  S
C508        C509   1.410       .  A
C509        C510   1.392       .  A
C509        H513   1.083       .  S
C510        H514   1.083       .  S
C515        C516   1.410       .  A
C515        C520   1.402       .  A
C515        H525   1.083       .  S
C516        C521   1.483       .  S
C516        C517   1.400       .  A
C517        C518   1.397       .  A
C517        H522   1.083       .  S
C518        C519   1.410       .  A
C518        H523   1.083       .  S
C519        C520   1.402       .  A
C520        H524   1.083       .  S
C521        C526   1.410       .  A
C521        C530   1.399       .  A
C526        C527   1.410       .  A
C526        H531   1.083       .  S
C527        C528   1.408       .  A
C527        H532   1.083       .  S
C528        C529   1.407       .  A
C529        C530   1.388       .  A
C529        H533   1.083       .  S
C530        H534   1.083       .  S
C535        C536   1.398       .  A
C535        C540   1.385       .  A
C535        H545   1.083       .  S
C536        C541   1.483       .  S
C536        C537   1.412       .  A
C537        C538   1.409       .  A
C537        H542   1.083       .  S
C538        C539   1.407       .  A
C538        H543   1.083       .  S
C539        C540   1.407       .  A
C540        H544   1.083       .  S
C541        C546   1.412       .  A
C541        C550   1.398       .  A
C546        C547   1.403       .  A
C546        H551   1.082       .  S
C547        C548   1.401       .  A
C547        H552   1.083       .  S
C548        C549   1.409       .  A
C549        C550   1.392       .  A
C549        H553   1.083       .  S
C550        H554   1.083       .  S
C555        C556   1.399       .  A
C555        C560   1.389       .  A
C555        H565   1.083       .  S
C556        C561   1.479       .  S
C556        C557   1.409       .  A
C557        C558   1.404       .  A
C557        H562   1.083       .  S
C558        C559   1.404       .  A
C558        H563   1.083       .  S
C559        C560   1.408       .  A
C560        H564   1.083       .  S
C561        C566   1.409       .  A
C561        C570   1.399       .  A
C566        C567   1.402       .  A
C566        H571   1.083       .  S
C567        C568   1.402       .  A
C567        H572   1.083       .  S
C568        C569   1.408       .  A
C569        C570   1.391       .  A
C569        H573   1.083       .  S
C570        H574   1.083       .  S
C575        C576   1.409       .  A
C575        C580   1.406       .  A
C575        H585   1.083       .  S
C576        C581   1.480       .  S
C576        C577   1.398       .  A
C577        C578   1.386       .  A
C577        H582   1.083       .  S
C578        C579   1.408       .  A
C578        H583   1.083       .  S
C579        C580   1.405       .  A
C580        H584   1.083       .  S
C581        C586   1.409       .  A
C581        C590   1.400       .  A
C586        C587   1.400       .  A
C586        H591   1.083       .  S
C587        C588   1.402       .  A
C587        H592   1.083       .  S
C588        C589   1.407       .  A
C589        C590   1.394       .  A
C589        H593   1.083       .  S
C590        H594   1.083       .  S
C595        C596   1.413       .  A
C595        C600   1.404       .  A
C595        H605   1.082       .  S
C596        C601   1.494       .  S
C596        C597   1.403       .  A
C597        C598   1.397       .  A
C597        H602   1.083       .  S
C598        C599   1.409       .  A
C598        H603   1.082       .  S
C599        C600   1.400       .  A
C600        H604   1.083       .  S
C601        C606   1.402       .  A
C601        C610   1.413       .  A
C606        C607   1.391       .  A
C606        H611   1.083       .  S
C607        C608   1.407       .  A
C607        H612   1.083       .  S
C608        C609   1.407       .  A
C609        C610   1.410       .  A
C609        H613   1.083       .  S
C610        H614   1.083       .  S
C615        C616   1.401       .  A
C615        C620   1.394       .  A
C615        H625   1.083       .  S
C616        C621   1.488       .  S
C616        C617   1.411       .  A
C617        C618   1.404       .  A
C617        H622   1.083       .  S
C618        C619   1.403       .  A
C618        H623   1.083       .  S
C619        C620   1.409       .  A
C620        H624   1.083       .  S
C621        C626   1.411       .  A
C621        C630   1.400       .  A
C626        C627   1.407       .  A
C626        H631   1.083       .  S
C627        C628   1.406       .  A
C627        H632   1.083       .  S
C628        C629   1.409       .  A
C629        C630   1.392       .  A
C629        H633   1.083       .  S
C630        H634   1.083       .  S
C635        C636   1.397       .  A
C635        C640   1.387       .  A
C635        H645   1.083       .  S
C636        C641   1.481       .  S
C636        C637   1.411       .  A
C637        C638   1.406       .  A
C637        H642   1.082       .  S
C638        C639   1.404       .  A
C638        H643   1.083       .  S
C639        C640   1.408       .  A
C640        H644   1.083       .  S
C641        C646   1.398       .  A
C641        C650   1.411       .  A
C646        C647   1.390       .  A
C646        H651   1.083       .  S
C647        C648   1.410       .  A
C647        H652   1.083       .  S
C648        C649   1.403       .  A
C649        C650   1.405       .  A
C649        H653   1.083       .  S
C650        H654   1.083       .  S
