geometry optimzed in LAMMPS
_audit_creation_date              2020-11-30 
_audit_creation_method            'lammps2cif' 
_symmetry_space_group_name_H-M    'P1' 
_symmetry_Int_Tables_number       1 
_symmetry_cell_setting            triclinic 
loop_ 
_symmetry_equiv_pos_as_xyz 
  x,y,z 
_cell_length_a                    28.263073799875706 
_cell_length_b                    31.485612602905405 
_cell_length_c                    51.96259730551639 
_cell_angle_alpha                 90.2436370387754 
_cell_angle_beta                  90.12111603108427 
_cell_angle_gamma                 89.90474716265929 
loop_ 
_atom_site_label 
_atom_site_type_symbol 
_atom_site_fract_x 
_atom_site_fract_y 
_atom_site_fract_z 
_atom_site_charge 
N1          N  0.83371937  0.40758338  0.29668848    -0.07580
N2          N  0.86881716  0.41413518  0.31341761    -0.59700
N3          N  0.84915158  0.31977948  0.26663316    -0.07260
N4          N  0.87866721  0.28719258  0.26821477    -0.61830
N5          N  0.86908672  0.35117703  0.25396006    -0.06860
N6          N  0.91254409  0.34046184  0.24679599    -0.59670
N7          N  0.80313208  0.38145578  0.30714178    -0.06530
N8          N  0.81328549  0.37438931  0.33128522    -0.62180
C9          C  0.85494299  0.39317733  0.33508826     0.94600
C10         C  0.91784929  0.30016417  0.25554335     0.94380
N11         N  0.71184300  0.27606457  0.25077398    -0.07760
N12         N  0.70655512  0.24143241  0.23647942    -0.60280
N13         N  0.71046175  0.33543071  0.30515653    -0.05880
N14         N  0.70515998  0.34764551  0.32927558    -0.61530
N15         N  0.67074138  0.34013861  0.29237823    -0.07790
N16         N  0.63768332  0.35603146  0.30769636    -0.60540
N17         N  0.75156966  0.27388261  0.26380329    -0.05530
N18         N  0.77403544  0.23820736  0.25889449    -0.61620
Mn19       Mn  0.77854885  0.32689618  0.28584364     1.18440
C20         C  0.74604003  0.21834065  0.24167292     0.96680
C21         C  0.65955763  0.35997635  0.33088755     0.97340
N22         N  0.83196567  0.41741317  0.21039309    -0.07810
N23         N  0.86644956  0.42843145  0.19445491    -0.64120
N24         N  0.75193794  0.47661958  0.23918825    -0.06620
N25         N  0.73474034  0.51539924  0.23874385    -0.64800
N26         N  0.79157511  0.47518510  0.25266272    -0.07320
N27         N  0.80199848  0.51394654  0.26125407    -0.64390
N28         N  0.79127438  0.41773847  0.19795787    -0.06220
N29         N  0.79730814  0.42808731  0.17375776    -0.65080
Mn30       Mn  0.83324171  0.41393855  0.25343420     1.10660
C31         C  0.84394996  0.43495995  0.17164220     0.97900
C32         C  0.76594405  0.53874560  0.25228681     0.97980
N33         N  0.63473273  0.39841197  0.24778872    -0.07330
N34         N  0.59147379  0.40935994  0.25495196    -0.62700
N35         N  0.69500410  0.36793041  0.19556506    -0.06650
N36         N  0.69287686  0.36095883  0.17050060    -0.59430
N37         N  0.67617347  0.33601709  0.20811986    -0.07960
N38         N  0.66143741  0.30636410  0.19206195    -0.62270
N39         N  0.65495346  0.42999773  0.23567251    -0.06940
N40         N  0.62631481  0.46292738  0.23432579    -0.59450
Mn41       Mn  0.67162195  0.33655871  0.25001361     1.20190
Mn42       Mn  0.72318080  0.42333790  0.21671653     1.10090
Cl43       Cl  0.75208434  0.37539243  0.25125677    -0.87420
C44         C  0.58699867  0.45006523  0.24666659     0.94910
C45         C  0.67200052  0.32237123  0.16873264     0.94710
N46         N  0.81092090  0.98559071  0.24933558    -0.07580
N47         N  0.81883090  0.01968482  0.23517402    -0.59700
N48         N  0.80897489  0.93029491  0.30491804    -0.07260
N49         N  0.81314945  0.91773205  0.32899056    -0.61830
N50         N  0.84913371  0.92483247  0.29261556    -0.06860
N51         N  0.88132565  0.90829790  0.30818121    -0.59670
N52         N  0.77042529  0.98924765  0.26141389    -0.06530
N53         N  0.74969373  0.02546055  0.25578364    -0.62180
C54         C  0.77989283  0.04397184  0.23923744     0.94600
C55         C  0.85846961  0.90463985  0.33090997     0.94380
N56         N  0.69065716  0.85407384  0.29624011    -0.07760
N57         N  0.66458891  0.83527395  0.31407604    -0.60280
N58         N  0.67338203  0.94303600  0.26411618    -0.05880
N59         N  0.64405864  0.97562603  0.26468929    -0.61530
N60         N  0.65336434  0.91007804  0.25284617    -0.07790
N61         N  0.60973051  0.92003299  0.24564898    -0.60540
N62         N  0.71275055  0.88677834  0.30646366    -0.05530
N63         N  0.70385072  0.89006843  0.33108562    -0.61620
Mn64       Mn  0.74147197  0.93835225  0.28449731     1.18440
C65         C  0.67439397  0.85778536  0.33584598     0.96680
C66         C  0.60443617  0.96130443  0.25303613     0.97340
N67         N  0.88545611  0.86300525  0.25058415    -0.07810
N68         N  0.92582130  0.85198729  0.26156363    -0.64120
N69         N  0.82580427  0.88998362  0.19642250    -0.06620
N70         N  0.82008204  0.89898833  0.17176404    -0.64800
N71         N  0.84521472  0.92239753  0.20844356    -0.07320
N72         N  0.85295174  0.95386809  0.19236465    -0.64390
N73         N  0.86622158  0.83018608  0.23900135    -0.06220
N74         N  0.89273037  0.79608729  0.24190593    -0.65080
Mn75       Mn  0.84971476  0.92492218  0.25033942     1.10660
C76         C  0.92980699  0.81009475  0.25596609     0.97900
C77         C  0.83735763  0.93897600  0.16946580     0.97980
N78         N  0.69066238  0.84131714  0.21087040    -0.07330
N79         N  0.65563770  0.83211014  0.19478184    -0.62700
N80         N  0.77034266  0.78240707  0.24174337    -0.06650
N81         N  0.78701037  0.74332137  0.24313424    -0.59430
N82         N  0.73026060  0.78585376  0.25453895    -0.07960
N83         N  0.71877944  0.74861375  0.26457965    -0.62270
N84         N  0.73138299  0.83854902  0.19874428    -0.06940
N85         N  0.72497949  0.82807802  0.17450566    -0.59450
Mn86       Mn  0.68956980  0.84693517  0.25360092     1.20190
Mn87       Mn  0.79907031  0.83470368  0.21840843     1.10090
Cl88       Cl  0.76968486  0.88608637  0.25165818    -0.87420
C89         C  0.67775478  0.82443155  0.17202002     0.94910
C90         C  0.75520088  0.72266549  0.25780013     0.94710
N91         N  0.16204509  0.18431665  0.26614124    -0.07580
N92         N  0.13258514  0.21693483  0.26639997    -0.59700
N93         N  0.18329014  0.09698396  0.29974557    -0.07260
N94         N  0.16106711  0.07870969  0.31940387    -0.61830
N95         N  0.20661480  0.13020932  0.30830031    -0.06860
N96         N  0.20257192  0.13449347  0.33319673    -0.59670
N97         N  0.14173103  0.15087594  0.25550272    -0.06530
N98         N  0.09803260  0.16052998  0.24812173    -0.62180
C99         C  0.09301783  0.20210237  0.25477899     0.94600
C100        C  0.17458319  0.10244036  0.34027570     0.94380
N101        N  0.25968875  0.02455309  0.24301921    -0.07760
N102        N  0.27721564  0.98585316  0.24461854    -0.60280
N103        N  0.17628145  0.08024105  0.21372208    -0.05880
N104        N  0.14027242  0.06983681  0.19847932    -0.61530
N105        N  0.21601348  0.07837036  0.20055886    -0.07790
N106        N  0.20795676  0.06742580  0.17652657    -0.60540
N107        N  0.22102832  0.02802253  0.25711333    -0.05530
N108        N  0.21155124  0.99125874  0.26827456    -0.61620
Mn109      Mn  0.17872864  0.08798346  0.25665642     1.18440
C110        C  0.24712641  0.96525329  0.26041407     0.96680
C111        C  0.16081082  0.06228264  0.17521470     0.97340
N112        N  0.30195294  0.17337618  0.30371838    -0.07810
N113        N  0.30843024  0.16406894  0.32815812    -0.64120
N114        N  0.29872037  0.22741493  0.24832228    -0.06620
N115        N  0.30541685  0.26217992  0.23452846    -0.64800
N116        N  0.25917509  0.23058774  0.26127482    -0.07320
N117        N  0.23817956  0.26699662  0.25686640    -0.64390
N118        N  0.34108207  0.16670667  0.29068217    -0.06220
N119        N  0.37474583  0.15226881  0.30615451    -0.65080
Mn120      Mn  0.23249451  0.18049376  0.28495505     1.10660
C121        C  0.35393515  0.15111983  0.32965401     0.97900
C122        C  0.26706681  0.28651998  0.24011534     0.97980
N123        N  0.30926763  0.13180702  0.19510164    -0.07330
N124        N  0.30246953  0.14021803  0.17043817    -0.62700
N125        N  0.37626754  0.10517166  0.24674572    -0.06650
N126        N  0.42018847  0.09547506  0.25352037    -0.59430
N127        N  0.35611726  0.07237191  0.23563551    -0.07960
N128        N  0.38558582  0.03988796  0.23464770    -0.62270
N129        N  0.32889808  0.16464209  0.20662132    -0.06940
N130        N  0.33517904  0.19609228  0.19031680    -0.59450
Mn131      Mn  0.28573854  0.07623156  0.21808402     1.20190
Mn132      Mn  0.33825479  0.16676526  0.24827987     1.10090
Cl133      Cl  0.25845300  0.12739873  0.25195599    -0.87420
C134        C  0.31822505  0.18071957  0.16786521     0.94910
C135        C  0.42553096  0.05432697  0.24594813     0.94710
N136        N  0.34426136  0.56476495  0.26060880    -0.07580
N137        N  0.37298708  0.53188012  0.26058508    -0.59700
N138        N  0.33202026  0.65377438  0.29315742    -0.07260
N139        N  0.35943593  0.67294926  0.31050933    -0.61830
N140        N  0.31042731  0.62152227  0.30400563    -0.06860
N141        N  0.32103783  0.61875792  0.32846981    -0.59670
N142        N  0.36349899  0.59712214  0.24848860    -0.06530
N143        N  0.40620988  0.58646455  0.24018616    -0.62180
C144        C  0.41124993  0.54528967  0.24756492     0.94600
C145        C  0.35096675  0.65097487  0.33257371     0.94380
N146        N  0.24631620  0.72387387  0.23981680    -0.07760
N147        N  0.22928149  0.76272010  0.24252375    -0.60280
N148        N  0.32291031  0.66761420  0.20704887    -0.05880
N149        N  0.35490904  0.68344550  0.19102186    -0.61530
N150        N  0.28109871  0.66772731  0.19570422    -0.07790
N151        N  0.28413563  0.68237938  0.17209318    -0.60540
N152        N  0.28709063  0.72030797  0.25206071    -0.05530
N153        N  0.29867947  0.75683557  0.26299253    -0.61620
Mn154      Mn  0.32817840  0.66046439  0.25011494     1.18440
C155        C  0.26222012  0.78298903  0.25696690     0.96680
C156        C  0.33014262  0.69163142  0.16908732     0.97340
N157        N  0.21358100  0.57849036  0.30539080    -0.07810
N158        N  0.20998421  0.58924865  0.32990099    -0.64120
N159        N  0.20602513  0.52186013  0.25047265    -0.06620
N160        N  0.19552970  0.48709472  0.23735258    -0.64800
N161        N  0.24766439  0.51811910  0.26134232    -0.07320
N162        N  0.26665869  0.48093881  0.25596501    -0.64390
N163        N  0.17262830  0.58310468  0.29380780    -0.06220
N164        N  0.14038729  0.59677119  0.31013721    -0.65080
Mn165      Mn  0.27899382  0.56988317  0.28309813     1.10660
C166        C  0.16394876  0.60009392  0.33272645     0.97900
C167        C  0.23379282  0.46192874  0.24100476     0.97980
N168        N  0.18620142  0.61333381  0.19664182    -0.07330
N169        N  0.18684644  0.60151823  0.17204176    -0.62700
N170        N  0.13225234  0.64427405  0.25241581    -0.06650
N171        N  0.09261051  0.65626441  0.26385271    -0.59430
N172        N  0.15032437  0.67588277  0.23939236    -0.07960
N173        N  0.12391997  0.71007101  0.24179422    -0.62270
N174        N  0.16773698  0.58283334  0.21056195    -0.06940
N175        N  0.15588248  0.55021382  0.19621088    -0.59450
Mn176      Mn  0.21538710  0.67049050  0.21717467     1.20190
Mn177      Mn  0.16802305  0.58248682  0.25204329     1.10090
Cl178      Cl  0.24825689  0.62117573  0.25042929    -0.87420
C179        C  0.16718506  0.56194804  0.17223029     0.94910
C180        C  0.08803478  0.69760229  0.25707052     0.94710
N181        N  0.59111291  0.21002166  0.04312760    -0.07580
N182        N  0.62618102  0.22458742  0.05747947    -0.59700
N183        N  0.51175784  0.14021759  0.01996823    -0.07260
N184        N  0.49460596  0.10156321  0.02156086    -0.61830
N185        N  0.55074519  0.14084841  0.00633567    -0.06860
N186        N  0.56079360  0.10216374  0.99788197    -0.59670
N187        N  0.55190848  0.20799421  0.05657813    -0.06530
N188        N  0.55932136  0.22115163  0.08034639    -0.62180
C189        C  0.60587109  0.23054465  0.08073791     0.94600
C190        C  0.52540641  0.07821576  0.00777103     0.94380
N191        N  0.39390210  0.21649476  0.00467741    -0.07760
N192        N  0.35114889  0.20501082  0.99720760    -0.60280
N193        N  0.45628805  0.25248269  0.05720599    -0.05880
N194        N  0.44250816  0.24607778  0.08092602    -0.61530
N195        N  0.42626793  0.27715333  0.04493703    -0.07790
N196        N  0.38854672  0.28328474  0.05985863    -0.60540
N197        N  0.41409883  0.18621127  0.01819268    -0.05530
N198        N  0.38553683  0.15312816  0.01967315    -0.61620
Mn199      Mn  0.48340526  0.19632118  0.03816931     1.18440
C200        C  0.34618450  0.16537230  0.00674485     0.96680
C201        C  0.39962609  0.26377033  0.08244801     0.97340
N202        N  0.58269950  0.19534393  0.95982046    -0.07810
N203        N  0.59772736  0.16337133  0.94574415    -0.64120
N204        N  0.60405149  0.29307563  0.98217805    -0.06620
N205        N  0.63042633  0.32763635  0.98191024    -0.64800
N206        N  0.62408613  0.26338327  0.99612557    -0.07320
N207        N  0.66476356  0.27713360  0.00558687    -0.64390
N208        N  0.56316908  0.22467958  0.94533910    -0.06220
N209        N  0.56496082  0.21312469  0.92085431    -0.65080
Mn210      Mn  0.58883505  0.20155649  0.00133725     1.10660
C211        C  0.58683884  0.17469292  0.92149656     0.97900
C212        C  0.66809279  0.31750819  0.99673839     0.97980
N213        N  0.46934736  0.33805630  0.99833139    -0.07330
N214        N  0.46107879  0.37643711  0.00778951    -0.62700
N215        N  0.46623828  0.27611865  0.94534293    -0.06650
N216        N  0.45755302  0.28549370  0.92111098    -0.59430
N217        N  0.42693294  0.27720728  0.95893030    -0.07960
N218        N  0.39088778  0.28782763  0.94395027    -0.62270
N219        N  0.50703859  0.33885999  0.98336897    -0.06940
N220        N  0.52498434  0.37723536  0.98230316    -0.59450
Mn221      Mn  0.42802302  0.27831144  0.00173227     1.20190
Mn222      Mn  0.53539801  0.28336676  0.96332166     1.10090
Cl223      Cl  0.50875216  0.23991584  0.00103323    -0.87420
C224        C  0.49639434  0.40018603  0.99761075     0.94910
C225        C  0.41055270  0.29237434  0.92037130     0.94710
N226        N  0.59022849  0.71264989  0.04610886    -0.07580
N227        N  0.62307323  0.72932632  0.06118718    -0.59700
N228        N  0.51432993  0.63971001  0.02216063    -0.07260
N229        N  0.49752030  0.60093076  0.02344634    -0.61830
N230        N  0.55443625  0.64065302  0.00952284    -0.06860
N231        N  0.56552674  0.60206525  0.00135385    -0.59670
N232        N  0.55005275  0.70947259  0.05864715    -0.06530
N233        N  0.55462480  0.72397203  0.08235102    -0.62180
C234        C  0.60040189  0.73573925  0.08384422     0.94600
C235        C  0.52953668  0.57791348  0.01034128     0.94380
N236        N  0.39595048  0.71449197  0.00397693    -0.07760
N237        N  0.35408970  0.70228427  0.99533725    -0.60280
N238        N  0.45396365  0.75076382  0.05686670    -0.05880
N239        N  0.44285637  0.74988468  0.08128697    -0.61530
N240        N  0.42818415  0.77845574  0.04426975    -0.07790
N241        N  0.39621875  0.79485762  0.06031159    -0.60540
N242        N  0.41510619  0.68449110  0.01824414    -0.05530
N243        N  0.38652365  0.65130052  0.01941275    -0.61620
Mn244      Mn  0.48329366  0.69540649  0.03911797     1.18440
C245        C  0.34865810  0.66252634  0.00484925     0.96680
C246        C  0.40712846  0.77744051  0.08363621     0.97340
N247        N  0.58838461  0.69227580  0.96245061    -0.07810
N248        N  0.60225703  0.65861578  0.94933101    -0.64120
N249        N  0.60804008  0.79179419  0.98325369    -0.06620
N250        N  0.63560691  0.82539352  0.98091844    -0.64800
N251        N  0.62793610  0.76312007  0.99799989    -0.07320
N252        N  0.66995218  0.77656455  0.00585414    -0.64390
N253        N  0.56854797  0.72041088  0.94717019    -0.06220
N254        N  0.56889451  0.70614545  0.92310081    -0.65080
Mn255      Mn  0.59205945  0.70145510  0.00420594     1.10660
C256        C  0.59034958  0.66748934  0.92477654     0.97900
C257        C  0.67426868  0.81557942  0.99502403     0.97980
N258        N  0.47161879  0.83678375  0.99736935    -0.07330
N259        N  0.46101749  0.87554003  0.00541212    -0.62700
N260        N  0.47202968  0.77406227  0.94504209    -0.06650
N261        N  0.46661964  0.78924482  0.92164762    -0.59430
N262        N  0.43188481  0.77652992  0.95793483    -0.07960
N263        N  0.39908005  0.79431867  0.94320748    -0.62270
N264        N  0.51021352  0.83752917  0.98306351    -0.06940
N265        N  0.52643554  0.87650719  0.98107784    -0.59450
Mn266      Mn  0.43061696  0.77720627  0.00092417     1.20190
Mn267      Mn  0.53999150  0.78078388  0.96409762     1.10090
Cl268      Cl  0.51125522  0.73871406  0.00191476    -0.87420
C269        C  0.49557912  0.89972347  0.99498910     0.94910
C270        C  0.42128364  0.80201187  0.92061494     0.94710
N271        N  0.08317554  0.95801785  0.04410767    -0.07580
N272        N  0.11529672  0.97356846  0.06016931    -0.59700
N273        N  0.00370431  0.89305647  0.01382098    -0.07260
N274        N  0.98303843  0.85613610  0.01000874    -0.61830
N275        N  0.04437277  0.89470411  0.00182868    -0.06860
N276        N  0.05225964  0.85868633  0.98940726    -0.59670
N277        N  0.04241941  0.95418369  0.05600153    -0.06530
N278        N  0.04610967  0.96657872  0.08019792    -0.62180
C279        C  0.09169089  0.97853593  0.08272685     0.94600
C280        C  0.01364351  0.83488106  0.99475688     0.94380
N281        N  0.88967208  0.97508154  0.00124924    -0.07760
N282        N  0.84634987  0.96525650  0.99332851    -0.60280
N283        N  0.94785660  0.00050645  0.05588958    -0.05880
N284        N  0.93339432  0.99535907  0.07957377    -0.61530
N285        N  0.92437472  0.03128291  0.04455334    -0.07790
N286        N  0.89103209  0.04564136  0.06040163    -0.60540
N287        N  0.90846782  0.94257663  0.01354743    -0.05530
N288        N  0.87893606  0.91025591  0.01390288    -0.62100
Mn289      Mn  0.97578437  0.94684884  0.03497947     1.18440
C290        C  0.84029428  0.92447741  0.00128181     0.96680
C291        C  0.89807809  0.02337889  0.08247235     0.97340
N292        N  0.08308925  0.95329550  0.95904024    -0.07810
N293        N  0.09694824  0.92299584  0.94310777    -0.64120
N294        N  0.10768317  0.04595471  0.98734442    -0.06620
N295        N  0.13788652  0.07774245  0.98703942    -0.64800
N296        N  0.12537957  0.01363321  0.99993738    -0.07320
N297        N  0.16839744  0.02272984  0.00839266    -0.64390
N298        N  0.06614045  0.98592419  0.94616958    -0.06220
N299        N  0.06890846  0.97873261  0.92111428    -0.65080
Mn300      Mn  0.08567553  0.95380072  0.00146623     1.10660
C301        C  0.08792207  0.93924771  0.91957043     0.97900
C302        C  0.17570845  0.06305681  0.00024498     0.97980
N303        N  0.97294343  0.09570849  0.00284307    -0.07330
N304        N  0.96530852  0.13377448  0.01311756    -0.62700
N305        N  0.97230458  0.04313354  0.94693058    -0.06650
N306        N  0.96790850  0.06056636  0.92405458    -0.59430
N307        N  0.93136930  0.04340659  0.95907764    -0.07960
N308        N  0.89882985  0.06154397  0.94431648    -0.62270
N309        N  0.01317691  0.09592076  0.99002843    -0.06940
N310        N  0.03354589  0.13320049  0.99161175    -0.59450
Mn311      Mn  0.92814486  0.03717328  0.00181902     1.20190
Mn312      Mn  0.03991240  0.04274613  0.96715751     1.10090
Cl313      Cl  0.00707997  0.99514982  0.00115951    -0.87420
C314        C  0.00377991  0.15679977  0.00584540     0.94910
C315        C  0.92213403  0.07187856  0.92237943     0.94710
N316        N  0.92656125  0.53509713  0.04277414    -0.07580
N317        N  0.89579846  0.51934264  0.05927974    -0.59700
N318        N  0.00078155  0.60011363  0.00964715    -0.07260
N319        N  0.01834597  0.63802230  0.00540536    -0.61830
N320        N  0.95920570  0.59586301  0.99871342    -0.06860
N321        N  0.94747434  0.63132642  0.98665862    -0.59670
N322        N  0.96767241  0.54132580  0.05412234    -0.06530
N323        N  0.96565170  0.52966012  0.07846214    -0.62180
C324        C  0.92072082  0.51623315  0.08145083     0.94600
C325        C  0.98498748  0.65723184  0.99101998     0.94380
N326        N  0.11953749  0.52121039  0.99943377    -0.07760
N327        N  0.16372062  0.52930954  0.99256902    -0.60280
N328        N  0.06597855  0.50214860  0.05480386    -0.05880
N329        N  0.07965581  0.50921912  0.07849029    -0.61530
N330        N  0.08773795  0.46906387  0.04490079    -0.07790
N331        N  0.11835411  0.45361135  0.06193867    -0.60540
N332        N  0.10030841  0.55518729  0.01009775    -0.05530
N333        N  0.13082283  0.58692205  0.01035795    -0.61620
Mn334      Mn  0.03334843  0.55073713  0.03223095     1.18440
C335        C  0.17002782  0.57073045  0.99903584     0.96680
C336        C  0.11168588  0.47880232  0.08294705     0.97340
N337        N  0.92201027  0.53088449  0.95874859    -0.07810
N338        N  0.90589993  0.55987248  0.94287353    -0.64120
N339        N  0.90408741  0.44015195  0.98925964    -0.06620
N340        N  0.87559632  0.40712245  0.98935573    -0.64800
N341        N  0.88459248  0.47260645  0.00108068    -0.07320
N342        N  0.84168473  0.46229093  0.00923273    -0.64390
N343        N  0.94098103  0.49884440  0.94606902    -0.06220
N344        N  0.93766919  0.50576441  0.92093213    -0.65080
Mn345      Mn  0.92142435  0.53459003  0.00060551     1.10660
C346        C  0.91601450  0.54441649  0.91933400     0.97900
C347        C  0.83699996  0.42089365  0.00211754     0.97980
N348        N  0.04173214  0.39958164  0.00623150    -0.07330
N349        N  0.05304251  0.36418107  0.01836849    -0.62700
N350        N  0.03850641  0.44497336  0.94831426    -0.06650
N351        N  0.04423989  0.42511450  0.92616012    -0.59430
N352        N  0.07933991  0.44826352  0.96048809    -0.07960
N353        N  0.11310463  0.43028700  0.94660520    -0.62270
N354        N  0.00124043  0.39481945  0.99386291    -0.06940
N355        N  0.98398076  0.35655494  0.99781813    -0.59450
Mn356      Mn  0.08315090  0.45883504  0.00260843     1.20190
Mn357      Mn  0.97109200  0.44443706  0.96870750     1.10090
Cl358      Cl  0.00254274  0.49719412  0.00080311    -0.87420
C359        C  0.01605205  0.33804636  0.01347782     0.94910
C360        C  0.09084255  0.41612853  0.92515551     0.94710
N361        N  0.82025630  0.14511317  0.79668961    -0.07580
N362        N  0.84462908  0.16617497  0.81456490    -0.59700
N363        N  0.84238833  0.05323271  0.76818283    -0.07260
N364        N  0.87147402  0.02042589  0.76868286    -0.61830
N365        N  0.86180887  0.08538109  0.75598109    -0.06860
N366        N  0.90493498  0.07515213  0.74822343    -0.59670
N367        N  0.79755825  0.11362597  0.80761662    -0.06530
N368        N  0.80386208  0.11362735  0.83256435    -0.62180
C369        C  0.83261069  0.14659897  0.83701266     0.94600
C370        C  0.91015810  0.03442873  0.75615065     0.94380
N371        N  0.70810411  0.00479796  0.75303913    -0.07760
N372        N  0.70339649  0.96890329  0.73997717    -0.60280
N373        N  0.70392252  0.06634024  0.80564879    -0.05880
N374        N  0.69634389  0.07690918  0.82980786    -0.61530
N375        N  0.66468071  0.06945799  0.79225763    -0.07790
N376        N  0.62950553  0.08251241  0.80704297    -0.60540
N377        N  0.74753415  0.00423109  0.76631740    -0.05530
N378        N  0.77037751  0.96840030  0.76282876    -0.61620
Mn379      Mn  0.77294260  0.05858093  0.78727100     1.18440
C380        C  0.74273994  0.94654166  0.74631836     0.96680
C381        C  0.64984410  0.08676315  0.83049781     0.97340
N382        N  0.82566610  0.14723903  0.71033127    -0.07810
N383        N  0.86120885  0.15852607  0.69521170    -0.64120
N384        N  0.74186308  0.20560795  0.73596841    -0.06620
N385        N  0.72270831  0.24379092  0.73583743    -0.64800
N386        N  0.77983569  0.20507852  0.75078361    -0.07320
N387        N  0.78727102  0.24318904  0.76084665    -0.64390
N388        N  0.78633566  0.14511331  0.69669255    -0.06220
N389        N  0.79450532  0.15411790  0.67239678    -0.65080
Mn390      Mn  0.82354935  0.14674918  0.75347770     1.10660
C391        C  0.84128822  0.16176980  0.67146501     0.97900
C392        C  0.75087883  0.26674535  0.75160472     0.97980
N393        N  0.62944158  0.12477305  0.74664741    -0.07330
N394        N  0.58897328  0.13718273  0.75690293    -0.62700
N395        N  0.69167537  0.08978165  0.69476769    -0.06650
N396        N  0.69213619  0.07726071  0.67030816    -0.59430
N397        N  0.67290966  0.05989018  0.70903316    -0.07960
N398        N  0.66088269  0.02682147  0.69506858    -0.62270
N399        N  0.64812330  0.15565500  0.73320907    -0.06940
N400        N  0.62119082  0.18982648  0.73416650    -0.59450
Mn401      Mn  0.66695507  0.06399064  0.75038815     1.20190
Mn402      Mn  0.71670012  0.14935796  0.71431081     1.10090
Cl403      Cl  0.74530607  0.10480291  0.75125528    -0.87420
C404        C  0.58431797  0.17788293  0.74890914     0.94910
C405        C  0.67241383  0.03773880  0.67094520     0.94710
N406        N  0.67265648  0.58185251  0.79432353    -0.07580
N407        N  0.64404837  0.56577658  0.81214392    -0.59700
N408        N  0.65893304  0.67043203  0.76169794    -0.07260
N409        N  0.63009383  0.70351705  0.76244943    -0.61830
N410        N  0.63811687  0.63785182  0.75032554    -0.06860
N411        N  0.59448824  0.64854287  0.74337743    -0.59670
N412        N  0.69651750  0.61369708  0.80440324    -0.06530
N413        N  0.68640774  0.61896268  0.82879105    -0.62180
C414        C  0.65425897  0.58895748  0.83369766     0.94600
C415        C  0.59007565  0.68995824  0.75069664     0.94380
N416        N  0.79915291  0.70897629  0.74747439    -0.07760
N417        N  0.81061351  0.74411852  0.73522937    -0.60280
N418        N  0.79590136  0.65285333  0.80232419    -0.05880
N419        N  0.80162651  0.64161175  0.82661658    -0.61530
N420        N  0.83533514  0.64641955  0.78945534    -0.07790
N421        N  0.86835064  0.63035657  0.80458608    -0.60540
N422        N  0.75870151  0.71378133  0.75944364    -0.05530
N423        N  0.74143650  0.75205172  0.75565207    -0.61620
Mn424      Mn  0.72768479  0.66365750  0.78220080     1.18440
C425        C  0.77396767  0.77039646  0.74041865     0.96680
C426        C  0.84699241  0.62798451  0.82773179     0.97340
N427        N  0.67484681  0.56619307  0.70804962    -0.07810
N428        N  0.64104413  0.55233276  0.69228844    -0.64120
N429        N  0.75372261  0.50973481  0.73860851    -0.06620
N430        N  0.77004203  0.47068941  0.73903901    -0.64800
N431        N  0.71418416  0.51284139  0.75199774    -0.07320
N432        N  0.70288859  0.47516708  0.76155934    -0.64390
N433        N  0.71572507  0.56544698  0.69586054    -0.06220
N434        N  0.71044861  0.55256386  0.67196472    -0.65080
Mn435      Mn  0.67326319  0.57374692  0.75116151     1.10660
C436        C  0.66401653  0.54489014  0.66969870     0.97900
C437        C  0.73862682  0.44938895  0.75349454     0.97980
N438        N  0.87192763  0.58610722  0.74631319    -0.07330
N439        N  0.91540287  0.57599716  0.75346159    -0.62700
N440        N  0.81199718  0.61539598  0.69313817    -0.06650
N441        N  0.81367175  0.62235846  0.66803240    -0.59430
N442        N  0.83229862  0.64681102  0.70567983    -0.07960
N443        N  0.84824437  0.67567382  0.68968609    -0.62270
N444        N  0.85198154  0.55408580  0.73434526    -0.06940
N445        N  0.88124476  0.52143605  0.73313981    -0.59450
Mn446      Mn  0.83606347  0.64795516  0.74748877     1.20190
Mn447      Mn  0.78334315  0.56089562  0.71512642     1.10090
Cl448      Cl  0.75471110  0.61144443  0.74893326    -0.87420
C449        C  0.92081045  0.53541802  0.74514687     0.94910
C450        C  0.83600017  0.66037183  0.66635722     0.94710
N451        N  0.18103103  0.33088115  0.79943902    -0.07580
N452        N  0.15897477  0.31139181  0.81862880    -0.59700
N453        N  0.16061612  0.41685006  0.76448193    -0.07260
N454        N  0.13095657  0.44912824  0.76354545    -0.61830
N455        N  0.14140319  0.38265593  0.75424394    -0.06860
N456        N  0.09792619  0.39126347  0.74624441    -0.59670
N457        N  0.20217811  0.36500796  0.80829520    -0.06530
N458        N  0.19666123  0.36898973  0.83313910    -0.62180
C459        C  0.17025964  0.33548279  0.83963164     0.94600
C460        C  0.09191117  0.43302149  0.75209585     0.94380
N461        N  0.29626596  0.46094858  0.74865790    -0.07760
N462        N  0.30453860  0.49606158  0.73556394    -0.60280
N463        N  0.29648583  0.40959141  0.80508344    -0.05880
N464        N  0.30063171  0.39860461  0.82944287    -0.61530
N465        N  0.33635704  0.40265316  0.79274183    -0.07790
N466        N  0.36811379  0.38613237  0.80855824    -0.60540
N467        N  0.25587744  0.46418261  0.76083290    -0.05530
N468        N  0.23556360  0.50092456  0.75645609    -0.61620
Mn469      Mn  0.22878162  0.41493188  0.78481785     1.18440
C470        C  0.26598278  0.52041203  0.74060356     0.96680
C471        C  0.34535923  0.38419026  0.83144464     0.97340
N472        N  0.17938689  0.31056693  0.71449955    -0.07810
N473        N  0.14490371  0.29340928  0.70069136    -0.64120
N474        N  0.26127937  0.25800438  0.74590194    -0.06620
N475        N  0.27873454  0.21941180  0.74854087    -0.64800
N476        N  0.22168669  0.26198600  0.75909375    -0.07320
N477        N  0.21117709  0.22585760  0.77058398    -0.64390
N478        N  0.21943241  0.30828460  0.70159696    -0.06220
N479        N  0.21263335  0.29010222  0.67905132    -0.65080
Mn480      Mn  0.17929010  0.32080949  0.75683788     1.10660
C481        C  0.16611529  0.28097450  0.67852412     0.97900
C482        C  0.24757336  0.19985526  0.76420258     0.97980
N483        N  0.37562006  0.34040825  0.75076583    -0.07330
N484        N  0.41864073  0.33101145  0.75919841    -0.62700
N485        N  0.31455637  0.36284260  0.69687834    -0.06650
N486        N  0.31559160  0.36796906  0.67158098    -0.59430
N487        N  0.33251051  0.39648478  0.70842390    -0.07960
N488        N  0.34528625  0.42530242  0.69151845    -0.62270
N489        N  0.35622991  0.30697776  0.73995915    -0.06940
N490        N  0.38494758  0.27419224  0.74094204    -0.59450
Mn491      Mn  0.33703881  0.40127186  0.75032012     1.20190
Mn492      Mn  0.28815060  0.30872172  0.72052924     1.10090
Cl493      Cl  0.25810489  0.36134191  0.75294195    -0.87420
C494        C  0.42373351  0.28932304  0.75298295     0.94910
C495        C  0.33470182  0.40721567  0.66867468     0.94710
N496        N  0.32400077  0.89312376  0.79695257    -0.07580
N497        N  0.35298182  0.91012768  0.81432851    -0.59700
N498        N  0.34195486  0.80236337  0.76676437    -0.07260
N499        N  0.37186328  0.76987561  0.76721649    -0.61830
N500        N  0.36135797  0.83475188  0.75472697    -0.06860
N501        N  0.40473272  0.82495845  0.74708061    -0.59670
N502        N  0.29959596  0.86260248  0.80775380    -0.06530
N503        N  0.30924941  0.85963711  0.83231471    -0.62180
C504        C  0.34216790  0.88935223  0.83651707     0.94600
C505        C  0.41084282  0.78410847  0.75463998     0.94380
N506        N  0.20289651  0.75845619  0.75281862    -0.07760
N507        N  0.19405824  0.72146111  0.74162118    -0.60280
N508        N  0.20277150  0.82034754  0.80578549    -0.05880
N509        N  0.19675149  0.83381629  0.82964618    -0.61530
N510        N  0.16298923  0.82384935  0.79272079    -0.07790
N511        N  0.12919376  0.83964118  0.80758045    -0.60540
N512        N  0.24254661  0.75644587  0.76587562    -0.05530
N513        N  0.26137000  0.71848884  0.76416473    -0.61620
Mn514      Mn  0.27168403  0.80953324  0.78675406     1.18440
C515        C  0.23101295  0.69682829  0.74903168     0.96680
C516        C  0.15063801  0.84493292  0.83069908     0.97340
N517        N  0.32432765  0.90035274  0.71103168    -0.07810
N518        N  0.35935156  0.91014128  0.69513516    -0.64120
N519        N  0.24311846  0.95958045  0.74009464    -0.06620
N520        N  0.22441067  0.99774880  0.74248414    -0.64800
N521        N  0.28249890  0.95678892  0.75367467    -0.07320
N522        N  0.29118252  0.99328189  0.76544641    -0.64390
N523        N  0.28383066  0.90153640  0.69849274    -0.06220
N524        N  0.29041909  0.91136960  0.67424570    -0.65080
Mn525      Mn  0.32460427  0.89715037  0.75401049     1.10660
C526        C  0.33744853  0.91640414  0.67210987     0.97900
C527        C  0.25429522  0.01841267  0.75851283     0.97980
N528        N  0.12622718  0.88004577  0.74725477    -0.07330
N529        N  0.08294905  0.89032220  0.75474798    -0.62700
N530        N  0.19045498  0.84886166  0.69588622    -0.06650
N531        N  0.19655278  0.83861156  0.67141574    -0.59430
N532        N  0.17127925  0.81693852  0.70832221    -0.07960
N533        N  0.16407597  0.78445940  0.69265006    -0.62270
N534        N  0.14609721  0.91216910  0.73547837    -0.06940
N535        N  0.11720662  0.94514458  0.73486309    -0.59450
Mn536      Mn  0.16402316  0.81887781  0.75035184     1.20190
Mn537      Mn  0.21537082  0.90613768  0.71698091     1.10090
Cl538      Cl  0.24431364  0.85802024  0.75187613    -0.87420
C539        C  0.07806417  0.93114263  0.74699125     0.94910
C540        C  0.18023823  0.79817329  0.66966534     0.94710
N541        N  0.41832567  0.04330240  0.46093381    -0.07580
N542        N  0.40242525  0.07466499  0.44657017    -0.59700
N543        N  0.39867535  0.94587575  0.48374460    -0.07260
N544        N  0.37027139  0.91273216  0.48176113    -0.61830
N545        N  0.37942270  0.97547799  0.49817097    -0.06860
N546        N  0.33722610  0.96309072  0.50619191    -0.59670
N547        N  0.43777548  0.01368985  0.44643809    -0.06530
N548        N  0.43519280  0.02431629  0.42186752    -0.62180
C549        C  0.41280495  0.06243781  0.42223173     0.94600
C550        C  0.33210352  0.92353017  0.49602825     0.94380
N551        N  0.53574695  0.90202051  0.49770773    -0.07760
N552        N  0.54546246  0.86384268  0.50683226    -0.60280
N553        N  0.53480716  0.96143599  0.44491909    -0.05880
N554        N  0.54154451  0.94579288  0.42165605    -0.61530
N555        N  0.57500448  0.96183819  0.45786211    -0.07790
N556        N  0.60928588  0.94616615  0.44337786    -0.60540
N557        N  0.49660132  0.90075465  0.48383549    -0.05530
N558        N  0.47909035  0.86221820  0.48309517    -0.61620
Mn559      Mn  0.46674063  0.95548577  0.46420694     1.18440
C560        C  0.50953008  0.83974147  0.49751495     0.96680
C561        C  0.58801060  0.93628469  0.42083161     0.97340
N562        N  0.41853454  0.02795458  0.54548478    -0.07810
N563        N  0.38650795  0.01116905  0.56092515    -0.64120
N564        N  0.49329095  0.10013361  0.51987749    -0.06620
N565        N  0.51013030  0.13899583  0.52013270    -0.64800
N566        N  0.45283341  0.09845259  0.50755539    -0.07320
N567        N  0.44136222  0.13662668  0.49897794    -0.64390
N568        N  0.45917087  0.03160107  0.55768157    -0.06220
N569        N  0.45574024  0.01738980  0.58141994    -0.65080
Mn570      Mn  0.41547335  0.03723739  0.50322518     1.10660
C571        C  0.41020801  0.00526614  0.58337754     0.97900
C572        C  0.47761872  0.16165066  0.50701125     0.97980
N573        N  0.61166461  0.02482784  0.50297994    -0.07330
N574        N  0.65402630  0.03681613  0.49506369    -0.62700
N575        N  0.55703261  0.99111653  0.55582641    -0.06650
N576        N  0.57057559  0.99250591  0.57991023    -0.59430
N577        N  0.57998445  0.96150426  0.54306881    -0.07960
N578        N  0.61151601  0.94320912  0.55849205    -0.62270
N579        N  0.59188304  0.05532194  0.51669099    -0.06940
N580        N  0.62013607  0.08851086  0.51823905    -0.59450
Mn581      Mn  0.57679128  0.96186713  0.50035975     1.20190
Mn582      Mn  0.52517106  0.04527906  0.53770100     1.10090
Cl583      Cl  0.49624126  0.99999489  0.50122618    -0.87420
C584        C  0.65853623  0.07693921  0.50443306     0.94910
C585        C  0.60400548  0.96247533  0.58159106     0.94710
N586        N  0.41200075  0.55154051  0.46117158    -0.07580
N587        N  0.39958238  0.58581885  0.44835200    -0.59700
N588        N  0.39064280  0.45179484  0.48098203    -0.07260
N589        N  0.36346216  0.41774370  0.47972887    -0.61830
N590        N  0.37136377  0.48081980  0.49582813    -0.06860
N591        N  0.33051073  0.46722415  0.50493419    -0.59670
N592        N  0.43134207  0.52323356  0.44572382    -0.06530
N593        N  0.43228697  0.53802670  0.42188699    -0.62180
C594        C  0.41205344  0.57714776  0.42384065     0.94600
C595        C  0.32615380  0.42761410  0.49489605     0.94380
N596        N  0.52761054  0.40592365  0.49432441    -0.07760
N597        N  0.53765966  0.36738977  0.50266091    -0.60280
N598        N  0.52756933  0.47035554  0.44335131    -0.05880
N599        N  0.53492055  0.46166421  0.41886186    -0.61530
N600        N  0.56773057  0.46947142  0.45630831    -0.07790
N601        N  0.60289370  0.45977144  0.44047523    -0.60540
N602        N  0.48850047  0.40518597  0.48040337    -0.05530
N603        N  0.47134664  0.36635165  0.47921119    -0.61620
Mn604      Mn  0.45895904  0.46236753  0.46187873     1.18440
C605        C  0.50220925  0.34297496  0.49315428     0.96680
C606        C  0.58197680  0.45567687  0.41702298     0.97340
N607        N  0.40677566  0.52941644  0.54446078    -0.07810
N608        N  0.37296198  0.51220319  0.55856883    -0.64120
N609        N  0.48504362  0.60157341  0.52262236    -0.06620
N610        N  0.50340895  0.63975041  0.52406619    -0.64800
N611        N  0.44567477  0.60162430  0.50923803    -0.07320
N612        N  0.43656812  0.64030354  0.50074498    -0.64390
N613        N  0.44665639  0.53074510  0.55748122    -0.06220
N614        N  0.44095220  0.51432269  0.58057242    -0.65080
Mn615      Mn  0.40725893  0.54170160  0.50275323     1.10660
C616        C  0.39477252  0.50359525  0.58118627     0.97900
C617        C  0.47302801  0.66342118  0.51033191     0.97980
N618        N  0.60304387  0.52755934  0.50425416    -0.07330
N619        N  0.64498978  0.54018306  0.49614617    -0.62700
N620        N  0.54230272  0.48812613  0.55551069    -0.06650
N621        N  0.55253590  0.48787968  0.58005975    -0.59430
N622        N  0.56948618  0.46189278  0.54256230    -0.07960
N623        N  0.60168254  0.44578499  0.55854307    -0.62270
N624        N  0.58356127  0.55677464  0.51907160    -0.06940
N625        N  0.61194647  0.59006081  0.52105857    -0.59450
Mn626      Mn  0.56845184  0.46541306  0.49930126     1.20190
Mn627      Mn  0.51443814  0.54491805  0.53888066     1.10090
Cl628      Cl  0.48769424  0.50351405  0.50036780    -0.87420
C629        C  0.65004435  0.57950583  0.50649435     0.94910
C630        C  0.58949879  0.46160961  0.58214731     0.94710
N631        N  0.92392400  0.29193383  0.46225859    -0.07580
N632        N  0.91503106  0.32422809  0.44681206    -0.59700
N633        N  0.89848024  0.19647822  0.48732760    -0.07260
N634        N  0.87020505  0.16325693  0.48624623    -0.61830
N635        N  0.87871112  0.22754193  0.50029358    -0.06860
N636        N  0.83614209  0.21610649  0.50823895    -0.59670
N637        N  0.94346943  0.26040253  0.44934514    -0.06530
N638        N  0.94768260  0.27044225  0.42482023    -0.62180
C639        C  0.93034446  0.31053705  0.42354689     0.94600
C640        C  0.83153943  0.17559067  0.49953086     0.94380
N641        N  0.03266384  0.14998760  0.50561107    -0.07760
N642        N  0.04180596  0.11197706  0.51513226    -0.60280
N643        N  0.03740274  0.20428265  0.45115507    -0.05880
N644        N  0.04523601  0.18757281  0.42823136    -0.61530
N645        N  0.07677174  0.20491115  0.46481199    -0.07790
N646        N  0.11171341  0.18827172  0.45116115    -0.60540
N647        N  0.99365171  0.14883469  0.49164742    -0.05530
N648        N  0.97507064  0.11069593  0.49171898    -0.61620
Mn649      Mn  0.96783955  0.20246533  0.46929465     1.18440
C650        C  0.00490721  0.08836780  0.50659727     0.96680
C651        C  0.09171546  0.17797894  0.42825587     0.97340
N652        N  0.91524887  0.28218457  0.54703782    -0.07810
N653        N  0.88301969  0.26484971  0.56222085    -0.64120
N654        N  0.99435098  0.35111835  0.52048717    -0.06620
N655        N  0.01182786  0.38971144  0.52032382    -0.64800
N656        N  0.95402305  0.34936194  0.50802831    -0.07320
N657        N  0.94287453  0.38727161  0.49897101    -0.64390
N658        N  0.95488119  0.28790426  0.55990276    -0.06220
N659        N  0.95022602  0.27539243  0.58390781    -0.65080
Mn660      Mn  0.91586576  0.28866146  0.50448781     1.10660
C661        C  0.90524118  0.26165283  0.58536254     0.97900
C662        C  0.97970696  0.41168127  0.50669873     0.97980
N663        N  0.11129710  0.27165249  0.50873451    -0.07330
N664        N  0.15349416  0.28308751  0.50016356    -0.62700
N665        N  0.05002147  0.24409686  0.56108255    -0.06650
N666        N  0.05562570  0.24419148  0.58604799    -0.59430
N667        N  0.07215563  0.21202093  0.55031539    -0.07960
N668        N  0.09506012  0.19013306  0.56828578    -0.62270
N669        N  0.09113584  0.30370159  0.52088200    -0.06940
N670        N  0.11893534  0.33722602  0.52078502    -0.59450
Mn671      Mn  0.07491479  0.20896787  0.50744523     1.20190
Mn672      Mn  0.02278885  0.29756960  0.54072303     1.10090
Cl673      Cl  0.99559885  0.24942809  0.50531113    -0.87420
C674        C  0.15756426  0.32437244  0.50764341     0.94910
C675        C  0.08324229  0.21046678  0.59058866     0.94710
N676        N  0.91541980  0.79081235  0.45839791    -0.07580
N677        N  0.90267773  0.82207653  0.44301747    -0.59700
N678        N  0.89303970  0.69530258  0.48448800    -0.07260
N679        N  0.86368550  0.66269429  0.48364536    -0.61830
N680        N  0.87419097  0.72684794  0.49747004    -0.06860
N681        N  0.83148866  0.71634662  0.50572555    -0.59670
N682        N  0.93333686  0.75903373  0.44501335    -0.06530
N683        N  0.93263728  0.76781175  0.42016741    -0.62180
C684        C  0.91376572  0.80730993  0.41931664     0.94600
C685        C  0.82546278  0.67591063  0.49717944     0.94380
N686        N  0.03209774  0.65181833  0.49930014    -0.07760
N687        N  0.04244944  0.61440493  0.50932822    -0.60280
N688        N  0.02946600  0.70715502  0.44502107    -0.05880
N689        N  0.03612144  0.69637849  0.42079842    -0.61530
N690        N  0.07023027  0.70927995  0.45727523    -0.07790
N691        N  0.10521775  0.69971724  0.44138639    -0.60540
N692        N  0.99151300  0.64969865  0.48669229    -0.05530
N693        N  0.97323964  0.61149768  0.48822209    -0.61620
Mn694      Mn  0.96155337  0.70225829  0.46475521     1.18440
C695        C  0.00489166  0.59012731  0.50250863     0.96680
C696        C  0.08340472  0.69241958  0.41854929     0.97340
N697        N  0.91466083  0.78092008  0.54287223    -0.07810
N698        N  0.88319196  0.76222875  0.55785329    -0.64120
N699        N  0.99147383  0.84984365  0.51557924    -0.06620
N700        N  0.00918893  0.88827189  0.51558396    -0.64800
N701        N  0.95050851  0.84859402  0.50373775    -0.07320
N702        N  0.93899360  0.88695093  0.49547666    -0.64390
N703        N  0.95526816  0.78483561  0.55509033    -0.06220
N704        N  0.95190868  0.76932741  0.57850868    -0.65080
Mn705      Mn  0.91196786  0.78796237  0.50073375     1.10660
C706        C  0.90697790  0.75527129  0.58011805     0.97900
C707        C  0.97654906  0.91086335  0.50283966     0.97980
N708        N  0.10907981  0.77440272  0.50034887    -0.07330
N709        N  0.15158906  0.78580192  0.49222186    -0.62700
N710        N  0.05402254  0.74411078  0.55478043    -0.06650
N711        N  0.07024520  0.75017050  0.57814282    -0.59430
N712        N  0.07880379  0.71494490  0.54263684    -0.07960
N713        N  0.11436536  0.70244489  0.55766093    -0.62270
N714        N  0.08925684  0.80570331  0.51331505    -0.06940
N715        N  0.11752719  0.83901931  0.51387477    -0.59450
Mn716      Mn  0.07377900  0.71160903  0.49974399     1.20190
Mn717      Mn  0.02215412  0.79671929  0.53486187     1.10090
Cl718      Cl  0.99251837  0.74955401  0.49991678    -0.87420
C719        C  0.15628905  0.82656592  0.50056677     0.94910
C720        C  0.10762309  0.72421038  0.58005135     0.94710
C721        C  0.02616457  0.51845830  0.48836160    -0.10620
C722        C  0.00158792  0.54444181  0.50569444     0.05580
C723        C  0.96746388  0.52689979  0.52211969    -0.04380
C724        C  0.95849593  0.48338176  0.52113754    -0.08830
C725        C  0.98308534  0.45741203  0.50378042     0.04700
C726        C  0.01720556  0.47498738  0.48736983    -0.03860
Br727      Br  0.05143199  0.44094290  0.46298533    -0.03550
H728        H  0.05130338  0.53221669  0.47507517     0.08610
H729        H  0.93334338  0.46960726  0.53440829     0.06630
Br730      Br  0.93350673  0.56113285  0.54653349    -0.03980
C731        C  0.02496452  0.01854312  0.48926305    -0.10620
C732        C  0.00152736  0.04253055  0.50804928     0.05580
C733        C  0.96740475  0.02353645  0.52381899    -0.04380
C734        C  0.95664618  0.98068286  0.52043481    -0.08830
C735        C  0.97985564  0.95672974  0.50151546     0.04700
C736        C  0.01469775  0.97560608  0.48610633    -0.03860
Br737      Br  0.04882948  0.94393225  0.46054383    -0.03550
H738        H  0.05033007  0.03352164  0.47660004     0.08610
H739        H  0.93153950  0.96564133  0.53321522     0.06630
Br740      Br  0.93602345  0.05481765  0.55057732    -0.03980
C741        C  0.24420790  0.33155413  0.49952378    -0.10620
C742        C  0.20028083  0.35124148  0.50389019     0.05580
C743        C  0.19876757  0.39614840  0.50575167    -0.04380
C744        C  0.24018454  0.41989767  0.50295773    -0.08830
C745        C  0.28392957  0.40027200  0.49845469     0.04700
C746        C  0.28580664  0.35546568  0.49715434    -0.03860
Br747      Br  0.34420201  0.32471232  0.49449253    -0.03550
H748        H  0.24653942  0.29722997  0.49871595     0.08610
H749        H  0.23797071  0.45421898  0.50402345     0.06630
Br750      Br  0.14184327  0.42817284  0.51141169    -0.03980
C751        C  0.73745636  0.58381220  0.50087447    -0.10620
C752        C  0.69421737  0.60518231  0.50429277     0.05580
C753        C  0.69469773  0.65002793  0.50565535    -0.04380
C754        C  0.73773731  0.67219553  0.50383653    -0.08830
C755        C  0.78101597  0.65075881  0.50029063     0.04700
C756        C  0.78038281  0.60585859  0.49899231    -0.03860
Br757      Br  0.83672814  0.57201975  0.49599268    -0.03550
H758        H  0.73808344  0.54942887  0.50006052     0.08610
H759        H  0.73712093  0.70657825  0.50453487     0.06630
Br760      Br  0.63768926  0.68308728  0.50801016    -0.03980
C761        C  0.24397297  0.83107208  0.49404471    -0.10620
C762        C  0.20084326  0.85201816  0.49885435     0.05580
C763        C  0.20192642  0.89645656  0.50324731    -0.04380
C764        C  0.24497537  0.91850415  0.50268189    -0.08830
C765        C  0.28796516  0.89767235  0.49772537     0.04700
C766        C  0.28714574  0.85317787  0.49364078    -0.03860
Br767      Br  0.34364651  0.81992786  0.48908003    -0.03550
H768        H  0.24439584  0.79698079  0.49117387     0.08610
H769        H  0.24459160  0.95256483  0.50570341     0.06630
Br770      Br  0.14626811  0.93010157  0.50922485    -0.03980
C771        C  0.49682816  0.76869378  0.47939433    -0.10620
C772        C  0.50378413  0.79428049  0.50124950     0.05580
C773        C  0.49897119  0.77696253  0.52592965    -0.04380
C774        C  0.48768289  0.73413389  0.52843456    -0.08830
C775        C  0.48032115  0.70866433  0.50659218     0.04700
C776        C  0.48549486  0.72586996  0.48189545    -0.03860
Br777      Br  0.48067696  0.69172296  0.45128659    -0.03550
H778        H  0.50023530  0.78214314  0.46032177     0.08610
H779        H  0.48418584  0.72068788  0.54750190     0.06630
Br780      Br  0.50364267  0.81105988  0.55652211    -0.03980
C781        C  0.52004574  0.22893113  0.51543503    -0.10620
C782        C  0.48248105  0.20801977  0.50289302     0.05580
C783        C  0.45209533  0.23193611  0.48696997    -0.04380
C784        C  0.45987906  0.27550231  0.48404297    -0.08830
C785        C  0.49715577  0.29648112  0.49682993     0.04700
C786        C  0.52777051  0.27240217  0.51258108    -0.03860
Br787      Br  0.58099316  0.29553751  0.53095956    -0.03550
H788        H  0.54391508  0.21139737  0.52779899     0.08610
H789        H  0.43643286  0.29304575  0.47146609     0.06630
Br790      Br  0.39977817  0.20796454  0.46827289    -0.03980
C791        C  0.74417662  0.17038576  0.50413516    -0.10620
C792        C  0.78792821  0.14962005  0.50176343     0.05580
C793        C  0.78854816  0.10472720  0.50018802    -0.04380
C794        C  0.74604420  0.08195170  0.50062702    -0.08830
C795        C  0.70229581  0.10276580  0.50278902     0.04700
C796        C  0.70167446  0.14759673  0.50447019    -0.03860
Br797      Br  0.64418650  0.18015476  0.50544263    -0.03550
H798        H  0.74282071  0.20475030  0.50497077     0.08610
H799        H  0.74734736  0.04758154  0.49977789     0.06630
Br800      Br  0.84585593  0.07195000  0.49869385    -0.03980
C801        C  0.32821734  0.96570110  0.63553666    -0.10620
C802        C  0.35795987  0.93813445  0.64949074     0.05580
C803        C  0.40510148  0.93282510  0.64142500    -0.04380
C804        C  0.42153481  0.95520956  0.61991962    -0.08830
C805        C  0.39147853  0.98261270  0.60601360     0.04700
C806        C  0.34445553  0.98782524  0.61411546    -0.03860
Br807      Br  0.30160940  0.02693896  0.59795022    -0.03550
H808        H  0.29200574  0.97089245  0.64158800     0.08610
H809        H  0.45778097  0.95055276  0.61375180     0.06630
Br810      Br  0.44737996  0.89370952  0.65792570    -0.03980
C811        C  0.14964450  0.71108307  0.62131174    -0.10620
C812        C  0.14453154  0.73539376  0.59899885     0.05580
C813        C  0.16182387  0.77748934  0.59911957    -0.04380
C814        C  0.17680951  0.79643849  0.62201861    -0.08830
C815        C  0.17602397  0.77389668  0.64514654     0.04700
C816        C  0.16661167  0.72974905  0.64415264    -0.03860
Br817      Br  0.17703723  0.69330356  0.67293220    -0.03550
H818        H  0.13745764  0.67848658  0.62149997     0.08610
H819        H  0.18583590  0.82986357  0.62193490     0.06630
Br820      Br  0.15951472  0.81284168  0.56927209    -0.03980
C821        C  0.39409912  0.43692811  0.60622650    -0.10620
C822        C  0.37446719  0.47721092  0.60171064     0.05580
C823        C  0.33881373  0.49261453  0.61810358    -0.04380
C824        C  0.32454930  0.46833763  0.63925647    -0.08830
C825        C  0.34466676  0.42827079  0.64400263     0.04700
C826        C  0.37925459  0.41232015  0.62707994    -0.03860
Br827      Br  0.41057363  0.35918166  0.63312614    -0.03550
H828        H  0.42197589  0.42502965  0.59383796     0.08610
H829        H  0.29864148  0.48130045  0.65248867     0.06630
Br830      Br  0.31171914  0.54796088  0.61354893    -0.03980
C831        C  0.17457401  0.23878790  0.63823596    -0.10620
C832        C  0.14496484  0.25340155  0.65824974     0.05580
C833        C  0.09695684  0.24099519  0.65802054    -0.04380
C834        C  0.07920033  0.21797482  0.63705691    -0.08830
C835        C  0.10756953  0.20855208  0.61556746     0.04700
C836        C  0.15635298  0.21676783  0.61700728    -0.03860
Br837      Br  0.19848007  0.20487952  0.58895084    -0.03550
H838        H  0.21188530  0.24655293  0.63823406     0.08610
H839        H  0.04141267  0.21223870  0.63604305     0.06630
Br840      Br  0.05194582  0.25777615  0.68380288    -0.03980
C841        C  0.28568911  0.63651446  0.74623715    -0.10620
C842        C  0.23992922  0.65225939  0.74162216     0.05580
C843        C  0.20468114  0.62417452  0.73270008    -0.04380
C844        C  0.21585115  0.58122889  0.72926895    -0.08830
C845        C  0.26117349  0.56562393  0.73524271     0.04700
C846        C  0.29658172  0.59378643  0.74329136    -0.03860
Br847      Br  0.35748742  0.57504541  0.75537920    -0.03550
H848        H  0.31232593  0.65692355  0.75418053     0.08610
H849        H  0.18794154  0.55926015  0.72409801     0.06630
Br850      Br  0.13943099  0.64003773  0.72905395    -0.03980
C851        C  0.20609584  0.13074969  0.76485204    -0.10620
C852        C  0.24803136  0.15362592  0.76849536     0.05580
C853        C  0.29051458  0.13137754  0.77283402    -0.04380
C854        C  0.29135783  0.08704768  0.77101201    -0.08830
C855        C  0.25018312  0.06420232  0.76487237     0.04700
C856        C  0.20674171  0.08643305  0.76302760    -0.03860
Br857      Br  0.14691980  0.05884605  0.75793498    -0.03550
H858        H  0.17297042  0.14747996  0.76200787     0.08610
H859        H  0.32480468  0.07063651  0.77331264     0.06630
Br860      Br  0.34805791  0.16004994  0.78167636    -0.03980
C861        C  0.62573556  0.48111463  0.64982264    -0.10620
C862        C  0.64568064  0.52168514  0.64702878     0.05580
C863        C  0.65636422  0.53628283  0.62213502    -0.04380
C864        C  0.64571768  0.51124730  0.60061256    -0.08830
C865        C  0.62255090  0.47200768  0.60315448     0.04700
C866        C  0.61390266  0.45651376  0.62808026    -0.03860
Br867      Br  0.58407121  0.40258353  0.63288631    -0.03550
H868        H  0.61945377  0.46852087  0.66887678     0.08610
H869        H  0.65055489  0.52475822  0.58163563     0.06630
Br870      Br  0.68072468  0.59238799  0.61641364    -0.03980
C871        C  0.83980705  0.72376866  0.60463239    -0.10620
C872        C  0.88897065  0.72893044  0.60160275     0.05580
C873        C  0.91980122  0.70790242  0.61898269    -0.04380
C874        C  0.90119121  0.68436119  0.63921050    -0.08830
C875        C  0.85241570  0.68026643  0.64252008     0.04700
C876        C  0.82143249  0.69977833  0.62498924    -0.03860
Br877      Br  0.75418239  0.69710386  0.62929101    -0.03550
H878        H  0.81552152  0.73926937  0.59151922     0.08610
H879        H  0.92514632  0.66937311  0.65275096     0.06630
Br880      Br  0.98763943  0.70778247  0.61652518    -0.03980
C881        C  0.96214258  0.46556726  0.74417533    -0.10620
C882        C  0.96508731  0.50995663  0.74691754     0.05580
C883        C  0.01018418  0.52847656  0.75029337    -0.04380
C884        C  0.05047773  0.50263416  0.75130037    -0.08830
C885        C  0.04755791  0.45815646  0.74896307     0.04700
C886        C  0.00251019  0.43967277  0.74520618    -0.03860
Br887      Br  0.99246537  0.37953247  0.74243660    -0.03550
H888        H  0.92795586  0.45065140  0.74150716     0.08610
H889        H  0.08459367  0.51771167  0.75391776     0.06630
Br890      Br  0.02043501  0.58869662  0.75251485    -0.03980
C891        C  0.49982837  0.78180721  0.75273403    -0.10620
C892        C  0.45650867  0.75990179  0.75200472     0.05580
C893        C  0.45810244  0.71534038  0.74894376    -0.04380
C894        C  0.50153808  0.69357534  0.74794816    -0.08830
C895        C  0.54487076  0.71516870  0.74974699     0.04700
C896        C  0.54349817  0.76014933  0.75161743    -0.03860
Br897      Br  0.59960403  0.79447694  0.75164932    -0.03550
H898        H  0.49984540  0.81609387  0.75453706     0.08610
H899        H  0.50126089  0.65931129  0.74599804     0.06630
Br900      Br  0.40240085  0.68247491  0.74397272    -0.03980
C901        C  0.61411244  0.95553211  0.62738225    -0.10620
C902        C  0.63593911  0.96372096  0.60383521     0.05580
C903        C  0.67488701  0.99169018  0.60331599    -0.04380
C904        C  0.68784192  0.01435265  0.62557498    -0.08830
C905        C  0.66209619  0.00985658  0.64848560     0.04700
C906        C  0.62552020  0.97899981  0.64935931    -0.03860
Br907      Br  0.58278045  0.97211409  0.67784755    -0.03550
H908        H  0.58303642  0.93537397  0.62779307     0.08610
H909        H  0.71637871  0.03720762  0.62455452     0.06630
Br910      Br  0.70622879  0.00511568  0.57166813    -0.03980
C911        C  0.88803507  0.22148678  0.65359398    -0.10620
C912        C  0.86251336  0.18395816  0.64926972     0.05580
C913        C  0.85058182  0.17254509  0.62376802    -0.04380
C914        C  0.86316325  0.19898169  0.60326262    -0.08830
C915        C  0.88798934  0.23690219  0.60762106     0.04700
C916        C  0.90065826  0.24792694  0.63311072    -0.03860
Br917      Br  0.93212828  0.30026863  0.64136096    -0.03550
H918        H  0.89625075  0.23138529  0.67309084     0.08610
H919        H  0.85448766  0.18930922  0.58378224     0.06630
Br920      Br  0.81864170  0.12030571  0.61584004    -0.03980
C921        C  0.95270213  0.97191300  0.73834690    -0.10620
C922        C  0.95366893  0.00899157  0.75339829     0.05580
C923        C  0.99524910  0.01960973  0.76691734    -0.04380
C924        C  0.03533438  0.99356278  0.76487862    -0.08830
C925        C  0.03453988  0.95668312  0.74964799     0.04700
C926        C  0.99288410  0.94600387  0.73619732    -0.03860
Br927      Br  0.99009133  0.89771212  0.71361947    -0.03550
H928        H  0.92073497  0.96333432  0.72802695     0.08610
H929        H  0.06701926  0.00176071  0.77552400     0.06630
Br930      Br  0.99786386  0.06781038  0.78960354    -0.03980
C931        C  0.73223341  0.83268096  0.72327473    -0.10620
C932        C  0.77284840  0.81560671  0.73478007     0.05580
C933        C  0.80683374  0.84263860  0.74567119    -0.04380
C934        C  0.79767702  0.88592631  0.74706248    -0.08830
C935        C  0.75460280  0.90290332  0.73810264     0.04700
C936        C  0.72316400  0.87627971  0.72440816    -0.03860
Br937      Br  0.66662947  0.89616031  0.70791538    -0.03550
H938        H  0.70626326  0.81172324  0.71460464     0.08610
H939        H  0.82321271  0.90582591  0.75692631     0.06630
Br940      Br  0.86251251  0.82173853  0.76275005    -0.03980
C941        C  0.73495139  0.33413024  0.77588992    -0.10620
C942        C  0.74830608  0.31332718  0.75303132     0.05580
C943        C  0.75707107  0.33730506  0.73083079    -0.04380
C944        C  0.75256797  0.38127698  0.73162451    -0.08830
C945        C  0.73903908  0.40250103  0.75426698     0.04700
C946        C  0.73004394  0.37863169  0.77661510    -0.03860
Br947      Br  0.71376313  0.40538018  0.80860518    -0.03550
H948        H  0.72804844  0.31578426  0.79306158     0.08610
H949        H  0.75988305  0.39907614  0.71427928     0.06630
Br950      Br  0.77705228  0.31162933  0.69902880    -0.03980
C951        C  0.55094156  0.25012530  0.75540351    -0.10620
C952        C  0.54364583  0.20593567  0.75439310     0.05580
C953        C  0.49723796  0.19012225  0.75623242    -0.04380
C954        C  0.45936217  0.21841582  0.75741392    -0.08830
C955        C  0.46619086  0.26257859  0.75692920     0.04700
C956        C  0.51277687  0.27852278  0.75682618    -0.03860
Br957      Br  0.52688186  0.33810644  0.75610774    -0.03550
H958        H  0.58652077  0.26273064  0.75421695     0.08610
H959        H  0.42392488  0.20561339  0.75736059     0.06630
Br960      Br  0.48203467  0.13075081  0.75413552    -0.03980
C961        C  0.89827780  0.54403238  0.87209227    -0.10620
C962        C  0.90256860  0.56693522  0.89525776     0.05580
C963        C  0.89087495  0.61087142  0.89528033    -0.04380
C964        C  0.87291504  0.62989855  0.87306500    -0.08830
C965        C  0.86774225  0.60676332  0.85029422     0.04700
C966        C  0.88116628  0.56361729  0.84969665    -0.03860
Br967      Br  0.87347546  0.52942879  0.81929382    -0.03550
H968        H  0.90686723  0.51050538  0.87154482     0.08610
H969        H  0.86334382  0.66324544  0.87348964     0.06630
Br970      Br  0.89999149  0.64820590  0.92424417    -0.03980
C971        C  0.08087391  0.36885234  0.88698609    -0.10620
C972        C  0.11126885  0.38636534  0.90580257     0.05580
C973        C  0.15949998  0.37437497  0.90549592    -0.04380
C974        C  0.17653020  0.34875702  0.88550961    -0.08830
C975        C  0.14723983  0.33627604  0.86494381     0.04700
C976        C  0.09841664  0.34417848  0.86665972    -0.03860
Br977      Br  0.05524487  0.32775895  0.83988213    -0.03550
H978        H  0.04343573  0.37620942  0.88716928     0.08610
H979        H  0.21435344  0.34325720  0.88424999     0.06630
Br980      Br  0.20580940  0.39500782  0.92960996    -0.03980
C981        C  0.85678121  0.11606755  0.90422186    -0.10620
C982        C  0.90283667  0.09974148  0.90163585     0.05580
C983        C  0.92919972  0.11113160  0.87939531    -0.04380
C984        C  0.90761437  0.13437681  0.85960344    -0.08830
C985        C  0.85997445  0.14622823  0.86114062     0.04700
C986        C  0.83550863  0.13913739  0.88433585    -0.03860
Br987      Br  0.77059072  0.15597778  0.88829661    -0.03550
H988        H  0.83626741  0.10935078  0.92130437     0.08610
H989        H  0.92661461  0.13887720  0.84172517     0.06630
Br990      Br  0.99326572  0.09346430  0.87295531    -0.03980
C991        C  0.15077699  0.90983494  0.85775572    -0.10620
C992        C  0.13072903  0.87009447  0.85212693     0.05580
C993        C  0.09446306  0.85440994  0.86794150    -0.04380
C994        C  0.08014322  0.87773019  0.88965730    -0.08830
C995        C  0.10054220  0.91732199  0.89539141     0.04700
C996        C  0.13561011  0.93366622  0.87900756    -0.03860
Br997      Br  0.16635974  0.98679980  0.88597118    -0.03550
H998        H  0.17886205  0.92212338  0.84574183     0.08610
H999        H  0.05335817  0.86474235  0.90225278     0.06630
Br1000     Br  0.06560116  0.80038716  0.86138706    -0.03980
C1001       C  0.03458985  0.71861324  0.98022941    -0.10620
C1002       C  0.98892878  0.70235119  0.98399508     0.05580
C1003       C  0.95066830  0.73070702  0.98616922    -0.04380
C1004       C  0.95942188  0.77433648  0.98756414    -0.08830
C1005       C  0.00588070  0.79034305  0.98677065     0.04700
C1006       C  0.04351488  0.76214373  0.98158673    -0.03860
Br1007     Br  0.10847882  0.77955611  0.97931423    -0.03550
H1008       H  0.06413312  0.69701245  0.97803128     0.08610
H1009       H  0.92988325  0.79564395  0.99087468     0.06630
Br1010     Br  0.88680802  0.71193848  0.99074671    -0.03980
C1011       C  0.98286868  0.22471273  0.02834383    -0.10620
C1012       C  0.01095722  0.20298097  0.01021833     0.05580
C1013       C  0.04481893  0.22645258  0.99589093    -0.04380
C1014       C  0.04814599  0.27022908  0.99914651    -0.08830
C1015       C  0.01841766  0.29182193  0.01608718     0.04700
C1016       C  0.98649188  0.26891100  0.03134704    -0.03860
Br1017     Br  0.94816949  0.29685438  0.05666914    -0.03550
H1018       H  0.95754850  0.20747766  0.03990024     0.08610
H1019       H  0.07234577  0.28801197  0.98714162     0.06630
Br1020     Br  0.08560567  0.20333580  0.96965756    -0.03980
C1021       C  0.57245738  0.63948989  0.88053621    -0.10620
C1022       C  0.60129762  0.63886262  0.90262324     0.05580
C1023       C  0.64144234  0.61183145  0.90268543    -0.04380
C1024       C  0.65337795  0.58869895  0.88055458    -0.08830
C1025       C  0.62698321  0.59225273  0.85779830     0.04700
C1026       C  0.58496744  0.61648100  0.85829327    -0.03860
Br1027     Br  0.54730143  0.62388957  0.82789179    -0.03550
H1028       H  0.54121161  0.65944725  0.88013833     0.08610
H1029       H  0.68674857  0.57166918  0.88020311     0.06630
Br1030     Br  0.68643843  0.60990314  0.93047505    -0.03980
C1031       C  0.42536781  0.82671870  0.87549358    -0.10620
C1032       C  0.40420198  0.83052553  0.89985010     0.05580
C1033       C  0.37078955  0.86339781  0.90383638    -0.04380
C1034       C  0.35589437  0.88835690  0.88302050    -0.08830
C1035       C  0.37427474  0.88193087  0.85824035     0.04700
C1036       C  0.41083863  0.85194839  0.85486846    -0.03860
Br1037     Br  0.43656703  0.83910100  0.82151125    -0.03550
H1038       H  0.45205581  0.80259832  0.87211047     0.08610
H1039       H  0.32705732  0.91063201  0.88578710     0.06630
Br1040     Br  0.34406826  0.87636947  0.93687850    -0.03980
C1041       C  0.26241198  0.65848448  0.99490399    -0.10620
C1042       C  0.30420802  0.63715803  0.00197656     0.05580
C1043       C  0.30171173  0.59284522  0.00648910    -0.04380
C1044       C  0.25812247  0.57152576  0.00444620    -0.08830
C1045       C  0.21623003  0.59339851  0.99830998     0.04700
C1046       C  0.21897018  0.63725864  0.99321600    -0.03860
Br1047     Br  0.16484063  0.66974565  0.98289641    -0.03550
H1048       H  0.26317046  0.69225961  0.99106447     0.08610
H1049       H  0.25678446  0.53779756  0.00841081     0.06630
Br1050     Br  0.35611240  0.55903926  0.01500802    -0.03980
C1051       C  0.71120084  0.88773727  0.99728443    -0.10620
C1052       C  0.71682579  0.84330482  0.99665082     0.05580
C1053       C  0.76303955  0.82648564  0.99641304    -0.04380
C1054       C  0.80219188  0.85368355  0.99736857    -0.08830
C1055       C  0.79680332  0.89810468  0.99835620     0.04700
C1056       C  0.75049258  0.91509432  0.99837213    -0.03860
Br1057     Br  0.73826664  0.97481238  0.00184453    -0.03550
H1058       H  0.67593894  0.90128911  0.99746355     0.08610
H1059       H  0.83732451  0.83984546  0.99716083     0.06630
Br1060     Br  0.77512006  0.76682380  0.99290906    -0.03980
C1061       C  0.57819628  0.15821480  0.87491813    -0.10620
C1062       C  0.59983565  0.14920766  0.89863075     0.05580
C1063       C  0.63458130  0.11679345  0.89973802    -0.04380
C1064       C  0.64771553  0.09553348  0.87734957    -0.08830
C1065       C  0.62758859  0.10563755  0.85350903     0.04700
C1066       C  0.59163496  0.13680862  0.85242084    -0.03860
Br1067     Br  0.56193576  0.15444806  0.82099325    -0.03550
H1068       H  0.55133470  0.18272003  0.87372572     0.08610
H1069       H  0.67536855  0.07171402  0.87849604     0.06630
Br1070     Br  0.66914869  0.10111467  0.93023196    -0.03980
C1071       C  0.35245036  0.37613914  0.87873184    -0.10620
C1072       C  0.36179675  0.35998783  0.85404440     0.05580
C1073       C  0.38263115  0.31940506  0.85162007    -0.04380
C1074       C  0.39620494  0.29706207  0.87363108    -0.08830
C1075       C  0.38816499  0.31372717  0.89828290     0.04700
C1076       C  0.36572954  0.35361128  0.90078601    -0.03860
Br1077     Br  0.35627585  0.38079624  0.93352209    -0.03550
H1078       H  0.33559966  0.40689013  0.88086839     0.08610
H1079       H  0.41342721  0.26647288  0.87149457     0.06630
Br1080     Br  0.39021699  0.29114825  0.81911936    -0.03980
C1081       C  0.30441577  0.09618604  0.01100338    -0.10620
C1082       C  0.30203748  0.13984440  0.00549767     0.05580
C1083       C  0.25741428  0.15787110  0.99971774    -0.04380
C1084       C  0.21728460  0.13209361  0.99874915    -0.08830
C1085       C  0.21974645  0.08826246  0.00358119     0.04700
C1086       C  0.26405574  0.07037826  0.01010909    -0.03860
Br1087     Br  0.27314604  0.01106197  0.01698911    -0.03550
H1088       H  0.33813413  0.08173801  0.01571806     0.08610
H1089       H  0.18361689  0.14674981  0.99415056     0.06630
Br1090     Br  0.24705362  0.21745241  0.99393716    -0.03980
C1091       C  0.51066148  0.47105161  0.97954111    -0.10620
C1092       C  0.50315157  0.44578709  0.00136064     0.05580
C1093       C  0.50705962  0.46377234  0.02603843    -0.04380
C1094       C  0.51717169  0.50694559  0.02854731    -0.08830
C1095       C  0.52442578  0.53219873  0.00673178     0.04700
C1096       C  0.52094533  0.51418612  0.98205328    -0.03860
Br1097     Br  0.52629820  0.54772851  0.95141226    -0.03550
H1098       H  0.50806269  0.45720724  0.96046017     0.08610
H1099       H  0.51960472  0.52088600  0.04760909     0.06630
Br1100     Br  0.50253910  0.43025182  0.05668553    -0.03980
C1101       C  0.51369123  0.01547514  0.97982173    -0.10620
C1102       C  0.52015712  0.03229767  0.00454359     0.05580
C1103       C  0.51594840  0.00571627  0.02617064    -0.04380
C1104       C  0.50593001  0.96265164  0.02280673    -0.08830
C1105       C  0.50000222  0.94573430  0.99808952     0.04700
C1106       C  0.50328737  0.97243407  0.97647806    -0.03860
Br1107     Br  0.49068864  0.95204917  0.94226923    -0.03550
H1108       H  0.51524759  0.03607834  0.96319290     0.08610
H1109       H  0.50414650  0.94210530  0.03945445     0.06630
Br1110     Br  0.52599367  0.02631891  0.06057777    -0.03980
C1111       C  0.74887116  0.41460965  0.00159651    -0.10620
C1112       C  0.79328264  0.39508204  0.00432318     0.05580
C1113       C  0.79530587  0.35038190  0.00648765    -0.04380
C1114       C  0.75391838  0.32626448  0.00502981    -0.08830
C1115       C  0.70979943  0.34543088  0.00082428     0.04700
C1116       C  0.70735681  0.39031835  0.99959609    -0.03860
Br1117     Br  0.64879158  0.42067414  0.99555040    -0.03550
H1118       H  0.74656463  0.44883573  0.99993745     0.08610
H1119       H  0.75661134  0.29200523  0.00627298     0.06630
Br1120     Br  0.85334775  0.31979646  0.01143721    -0.03980
C1121       C  0.37398717  0.75383426  0.15095260    -0.10620
C1122       C  0.34667283  0.71715073  0.14688551     0.05580
C1123       C  0.33066565  0.70802803  0.12170026    -0.04380
C1124       C  0.34371272  0.73415814  0.10114041    -0.08830
C1125       C  0.37397947  0.76901566  0.10485259     0.04700
C1126       C  0.38764739  0.77952804  0.13018256    -0.03860
Br1127     Br  0.42799351  0.82722469  0.13672517    -0.03550
H1128       H  0.38513276  0.76232567  0.17025425     0.08610
H1129       H  0.33478198  0.72418452  0.08173355     0.06630
Br1130     Br  0.29617686  0.65706607  0.11368780    -0.03980
C1131       C  0.11832069  0.47459024  0.12896983    -0.10620
C1132       C  0.14159115  0.48259935  0.10584418     0.05580
C1133       C  0.17829891  0.51288582  0.10560394    -0.04380
C1134       C  0.18736132  0.53787986  0.12751223    -0.08830
C1135       C  0.15992428  0.53324305  0.14982243     0.04700
C1136       C  0.12576259  0.50022260  0.15054695    -0.03860
Br1137     Br  0.08161050  0.49207451  0.17826844    -0.03550
H1138       H  0.08920028  0.45227087  0.12918437     0.08610
H1139       H  0.21438531  0.56218877  0.12668327     0.06630
Br1140     Br  0.21190058  0.52528769  0.07449054    -0.03980
C1141       C  0.35333267  0.65731404  0.37918350    -0.10620
C1142       C  0.37895119  0.65090746  0.35643621     0.05580
C1143       C  0.42014875  0.62569494  0.35735760    -0.04380
C1144       C  0.43178817  0.60350376  0.37987113    -0.08830
C1145       C  0.40310077  0.60629528  0.40187469     0.04700
C1146       C  0.36466662  0.63528091  0.40172664    -0.03860
Br1147     Br  0.32112608  0.64171345  0.42986560    -0.03550
H1148       H  0.32070931  0.67545198  0.37855115     0.08610
H1149       H  0.46194345  0.58221996  0.37968876     0.06630
Br1150     Br  0.45695154  0.61504348  0.32702124    -0.03980
C1151       C  0.10383962  0.64794598  0.35162056    -0.10620
C1152       C  0.14436054  0.62280547  0.35534236     0.05580
C1153       C  0.16600967  0.62241293  0.37987780    -0.04380
C1154       C  0.14686839  0.64690249  0.39989681    -0.08830
C1155       C  0.10601429  0.67165901  0.39612882     0.04700
C1156       C  0.08474997  0.67226152  0.37153065    -0.03860
Br1157     Br  0.03055126  0.70658579  0.36318558    -0.03550
H1158       H  0.08705438  0.64945139  0.33288142     0.08610
H1159       H  0.16316587  0.64536646  0.41875817     0.06630
Br1160     Br  0.21988550  0.58760982  0.38795064    -0.03980
C1161       C  0.34321644  0.17870989  0.12282774    -0.10620
C1162       C  0.32495264  0.20259010  0.14306046     0.05580
C1163       C  0.32155692  0.24717874  0.14041123    -0.04380
C1164       C  0.34157835  0.26740515  0.11889687    -0.08830
C1165       C  0.36513535  0.24349537  0.10003000     0.04700
C1166       C  0.36396487  0.19842517  0.10181689    -0.03860
Br1167     Br  0.39584425  0.16060179  0.07862528    -0.03550
H1168       H  0.34576692  0.14447230  0.12452387     0.08610
H1169       H  0.34168819  0.30175550  0.11790777     0.06630
Br1170     Br  0.29019344  0.28143823  0.16570508    -0.03980
C1171       C  0.16066591  0.05157279  0.12807052    -0.10620
C1172       C  0.13835573  0.04394789  0.15178186     0.05580
C1173       C  0.10047524  0.01488177  0.15244014    -0.04380
C1174       C  0.08643129  0.99390943  0.12977278    -0.08830
C1175       C  0.10967303  0.00073706  0.10616317     0.04700
C1176       C  0.14691227  0.03056353  0.10549625    -0.03860
Br1177     Br  0.17979612  0.04594258  0.07461247    -0.03550
H1178       H  0.18979778  0.07384779  0.12710635     0.08610
H1179       H  0.05751502  0.97143531  0.13075152     0.06630
Br1180     Br  0.06876494  0.99985660  0.18371480    -0.03980
C1181       C  0.21627940  0.84809250  0.26789131    -0.10620
C1182       C  0.26031530  0.82913753  0.26270928     0.05580
C1183       C  0.30052470  0.85535967  0.26059744    -0.04380
C1184       C  0.29541846  0.89953172  0.26166429    -0.08830
C1185       C  0.25091196  0.91876278  0.26511914     0.04700
C1186       C  0.21133449  0.89239198  0.26954811    -0.03860
Br1187     Br  0.14904381  0.91415102  0.27612258    -0.03550
H1188       H  0.18517974  0.82831538  0.26996106     0.08610
H1189       H  0.32641567  0.91906976  0.25861450     0.06630
Br1190     Br  0.36261213  0.83360431  0.25328493    -0.03980
C1191       C  0.21086371  0.34531224  0.23464559    -0.10620
C1192       C  0.25736393  0.33021317  0.23138372     0.05580
C1193       C  0.29321597  0.35913140  0.22465502    -0.04380
C1194       C  0.28331561  0.40267543  0.22527851    -0.08830
C1195       C  0.23832366  0.41768354  0.23234064     0.04700
C1196       C  0.20111495  0.38863416  0.23544942    -0.03860
Br1197     Br  0.13821021  0.40534823  0.24516636    -0.03550
H1198       H  0.18242359  0.32342241  0.23893029     0.08610
H1199       H  0.31164443  0.42503787  0.22187493     0.06630
Br1200     Br  0.35696000  0.34213510  0.21708018    -0.03980
C1201       C  0.34678345  0.13486419  0.37606080    -0.10620
C1202       C  0.37352309  0.13099248  0.35336119     0.05580
C1203       C  0.41452836  0.10504794  0.35384617    -0.04380
C1204       C  0.42689135  0.08331325  0.37648117    -0.08830
C1205       C  0.39941473  0.08683083  0.39891419     0.04700
C1206       C  0.35891247  0.11303595  0.39845158    -0.03860
Br1207     Br  0.31556229  0.11747702  0.42674632    -0.03550
H1208       H  0.31495289  0.15407900  0.37629959     0.08610
H1209       H  0.45810729  0.06329555  0.37648640     0.06630
Br1210     Br  0.45442517  0.09608502  0.32444991    -0.03980
C1211       C  0.18240028  0.12273294  0.38549410    -0.10620
C1212       C  0.15331936  0.10467784  0.36627638     0.05580
C1213       C  0.10401216  0.10557042  0.36987027    -0.04380
C1214       C  0.08489068  0.12824962  0.39074081    -0.08830
C1215       C  0.11405857  0.15082973  0.40812606     0.04700
C1216       C  0.16348211  0.14680120  0.40568252    -0.03860
Br1217     Br  0.20729469  0.17857000  0.42647521    -0.03550
H1218       H  0.22048101  0.12275536  0.38295424     0.08610
H1219       H  0.04677454  0.12974841  0.39264102     0.06630
Br1220     Br  0.06101491  0.08076332  0.34552460    -0.03980
C1221       C  0.68600056  0.77769470  0.13395458    -0.10620
C1222       C  0.65640490  0.80353554  0.14920100     0.05580
C1223       C  0.60823785  0.80712466  0.14254824    -0.04380
C1224       C  0.59067554  0.78450113  0.12128675    -0.08830
C1225       C  0.62046995  0.75853412  0.10622185     0.04700
C1226       C  0.66859654  0.75527889  0.11278550    -0.03860
Br1227     Br  0.71186133  0.71849519  0.09491004    -0.03550
H1228       H  0.72303619  0.77387672  0.13883486     0.08610
H1229       H  0.55362740  0.78781063  0.11625924     0.06630
Br1230     Br  0.56550161  0.84390716  0.16071992    -0.03980
C1231       C  0.84306074  0.97114739  0.09897866    -0.10620
C1232       C  0.86139965  0.01250025  0.10135298     0.05580
C1233       C  0.86144118  0.03195905  0.12562589    -0.04380
C1234       C  0.84965536  0.00820609  0.14743262    -0.08830
C1235       C  0.83872673  0.96456108  0.14547185     0.04700
C1236       C  0.83328995  0.94656752  0.12068158    -0.03860
Br1237     Br  0.82053053  0.88739974  0.11459003    -0.03550
H1238       H  0.84332870  0.95564553  0.08029557     0.08610
H1239       H  0.85237494  0.02331885  0.16613974     0.06630
Br1240     Br  0.88281184  0.08922488  0.12996784    -0.03980
C1241       C  0.05530801  0.76986272  0.26100060    -0.10620
C1242       C  0.04773077  0.72589338  0.26306124     0.05580
C1243       C  0.00128412  0.71092576  0.26702533    -0.04380
C1244       C  0.96342922  0.73960150  0.26630195    -0.08830
C1245       C  0.97093812  0.78310670  0.26202697     0.04700
C1246       C  0.01759196  0.79844013  0.26036751    -0.03860
Br1247     Br  0.03246827  0.85684088  0.25365004    -0.03550
H1248       H  0.09080238  0.78203127  0.25832332     0.08610
H1249       H  0.92766536  0.72754240  0.26792784     0.06630
Br1250     Br  0.98611272  0.65190357  0.27100908    -0.03980
C1251       C  0.51937325  0.96635455  0.24033383    -0.10620
C1252       C  0.55927721  0.98605670  0.25119464     0.05580
C1253       C  0.55414717  0.02817453  0.26072479    -0.04380
C1254       C  0.51049890  0.04918824  0.25879293    -0.08830
C1255       C  0.47063408  0.02951796  0.24788336     0.04700
C1256       C  0.47553039  0.98715660  0.23876908    -0.03860
Br1257     Br  0.42459773  0.95443168  0.22425504    -0.03550
H1258       H  0.52199310  0.93408036  0.23317238     0.08610
H1259       H  0.50781438  0.08139563  0.26605647     0.06630
Br1260     Br  0.60390279  0.05982728  0.27720888    -0.03980
C1261       C  0.58224361  0.90332678  0.37755344    -0.10620
C1262       C  0.60846927  0.90883953  0.40037475     0.05580
C1263       C  0.65173934  0.88653549  0.40309194    -0.04380
C1264       C  0.66929498  0.86270973  0.38242468    -0.08830
C1265       C  0.64501967  0.86070679  0.35889832     0.04700
C1266       C  0.60010638  0.87972274  0.35693764    -0.03860
Br1267     Br  0.56520556  0.88065068  0.32518359    -0.03550
H1268       H  0.54853942  0.91925315  0.37511799     0.08610
H1269       H  0.70443568  0.84904222  0.38388805     0.06630
Br1270     Br  0.69043506  0.88811614  0.43352866    -0.03980
C1271       C  0.91428219  0.89083752  0.36706451    -0.10620
C1272       C  0.87528538  0.87798664  0.35228089     0.05580
C1273       C  0.85157983  0.83999371  0.35857338    -0.04380
C1274       C  0.86582615  0.81652150  0.37999682    -0.08830
C1275       C  0.90327991  0.83044423  0.39548091     0.04700
C1276       C  0.92815013  0.86744964  0.38871932    -0.03860
Br1277     Br  0.98145277  0.88665546  0.40836446    -0.03550
H1278       H  0.93313764  0.91961274  0.36217244     0.08610
H1279       H  0.84684490  0.78782681  0.38495121     0.06630
Br1280     Br  0.80027122  0.81803948  0.33824470    -0.03980
C1281       C  0.61558835  0.29752476  0.10460437    -0.10620
C1282       C  0.62772418  0.25461281  0.10169996     0.05580
C1283       C  0.65692065  0.23488568  0.11997092    -0.04380
C1284       C  0.67237141  0.25795215  0.14143281    -0.08830
C1285       C  0.65966303  0.30078482  0.14459330     0.04700
C1286       C  0.63149165  0.32080290  0.12583882    -0.03860
Br1287     Br  0.60959513  0.37823826  0.12961944    -0.03550
H1288       H  0.59249521  0.31260273  0.09067577     0.08610
H1289       H  0.69367109  0.24224376  0.15592693     0.06630
Br1290     Br  0.67424736  0.17616918  0.11696396    -0.03980
C1291       C  0.91047197  0.44699513  0.14109069    -0.10620
C1292       C  0.86433784  0.45663833  0.14903577     0.05580
C1293       C  0.83748107  0.48645658  0.13467289    -0.04380
C1294       C  0.85675732  0.50517812  0.11281249    -0.08830
C1295       C  0.90268552  0.49555657  0.10486617     0.04700
C1296       C  0.92958312  0.46577270  0.11901371    -0.03860
Br1297     Br  0.99038564  0.44615811  0.10775057    -0.03550
H1298       H  0.93113633  0.42377079  0.15158763     0.08610
H1299       H  0.83587447  0.52801712  0.10211568     0.06630
Br1300     Br  0.77523175  0.50571721  0.14418965    -0.03980
C1301       C  0.97854708  0.25608082  0.23207997    -0.10620
C1302       C  0.96305661  0.27565722  0.25496038     0.05580
C1303       C  0.99085257  0.27085345  0.27733468    -0.04380
C1304       C  0.03261177  0.24678641  0.27671547    -0.08830
C1305       C  0.04776119  0.22650364  0.25408319     0.04700
C1306       C  0.02040707  0.23154729  0.23153076    -0.03860
Br1307     Br  0.04048276  0.20790210  0.19930399    -0.03550
H1308       H  0.95796564  0.25973174  0.21461885     0.08610
H1309       H  0.05341188  0.24380014  0.29416072     0.06630
Br1310     Br  0.97487445  0.29814558  0.30910925    -0.03980
C1311       C  0.78510211  0.60797308  0.27457271    -0.10620
C1312       C  0.76212343  0.58601626  0.25446928     0.05580
C1313       C  0.73520445  0.61004347  0.23649472    -0.04380
C1314       C  0.73104840  0.65406378  0.23927904    -0.08830
C1315       C  0.75417056  0.67576431  0.25910785     0.04700
C1316       C  0.78165139  0.65251485  0.27680520    -0.03860
Br1317     Br  0.81559556  0.68061425  0.30390377    -0.03550
H1318       H  0.80607224  0.59056626  0.28846108     0.08610
H1319       H  0.71143099  0.67189094  0.22497596     0.06630
Br1320     Br  0.70698267  0.58676632  0.20578657    -0.03980
C1321       C  0.81125580  0.11567576  0.23083651    -0.10620
C1322       C  0.77303102  0.08760752  0.23003437     0.05580
C1323       C  0.72717539  0.10365591  0.22551077    -0.04380
C1324       C  0.71901561  0.14741100  0.22678187    -0.08830
C1325       C  0.75647903  0.17529697  0.23189018     0.04700
C1326       C  0.80336917  0.15944953  0.23146263    -0.03860
Br1327     Br  0.85804703  0.19556128  0.23255346    -0.03550
H1328       H  0.84696916  0.10367681  0.23311091     0.08610
H1329       H  0.68304100  0.15919346  0.22566496     0.06630
Br1330     Br  0.67470282  0.06692723  0.21816085    -0.03980
C1331       C  0.49886353  0.54177918  0.24365090    -0.10620
C1332       C  0.45570146  0.52026944  0.24599378     0.05580
C1333       C  0.45642279  0.47558152  0.24904106    -0.04380
C1334       C  0.49950062  0.45374945  0.24976508    -0.08830
C1335       C  0.54263272  0.47524169  0.24750188     0.04700
C1336       C  0.54201216  0.51994047  0.24462809    -0.03860
Br1337     Br  0.59832274  0.55393944  0.24372467    -0.03550
H1338       H  0.49923140  0.57605222  0.24192605     0.08610
H1339       H  0.49911693  0.41950110  0.25168141     0.06630
Br1340     Br  0.40041261  0.44149016  0.25157731    -0.03980
C1341       C  0.60147455  0.41130250  0.34943495    -0.10620
C1342       C  0.63995939  0.38377220  0.35332659     0.05580
C1343       C  0.66082124  0.38218563  0.37813406    -0.04380
C1344       C  0.64293596  0.40750113  0.39814367    -0.08830
C1345       C  0.60402672  0.43453484  0.39432516     0.04700
C1346       C  0.58363127  0.43659758  0.36945342    -0.03860
Br1347     Br  0.53243532  0.47434241  0.36100661    -0.03550
H1348       H  0.58554199  0.41387248  0.33052344     0.08610
H1349       H  0.65862962  0.40477606  0.41710300     0.06630
Br1350     Br  0.71215196  0.34472209  0.38681689    -0.03980
C1351       C  0.90673480  0.39753293  0.37415372    -0.10620
C1352       C  0.88668309  0.37326262  0.35427954     0.05580
C1353       C  0.88737457  0.32818729  0.35639179    -0.04380
C1354       C  0.90567699  0.30892001  0.37827985    -0.08830
C1355       C  0.92150102  0.33311696  0.39909798     0.04700
C1356       C  0.92372341  0.37776390  0.39661809    -0.03860
Br1357     Br  0.94887068  0.41302322  0.42339581    -0.03550
H1358       H  0.90605206  0.43187079  0.37306482     0.08610
H1359       H  0.90380123  0.27464195  0.37984285     0.06630
Br1360     Br  0.85857704  0.28988026  0.33189055    -0.03980
loop_ 
_geom_bond_atom_site_label_1 
_geom_bond_atom_site_label_2 
_geom_bond_distance 
_geom_bond_site_symmetry_2 
_ccdc_geom_bond_type 
N1            N2   1.333       .  A
N1            N7   1.314       .  A
N1          Mn30   2.257       .  S
N2            C9   1.366       .  A
N3            N5   1.318       .  A
N3            N4   1.324       .  A
N3          Mn19   2.244       .  S
N4           C10   1.354       .  A
N5            N6   1.327       .  A
N5          Mn30   2.219       .  S
N6           C10   1.358       .  A
N7            N8   1.306       .  A
N7          Mn19   2.155       .  S
N8            C9   1.332       .  A
C9         C1352   1.481       .  S
C10        C1302   1.492       .  S
N11          N17   1.312       .  A
N11          N12   1.325       .  A
N11         Mn41   2.217       .  S
N12          C20   1.358       .  A
N13          N14   1.318       .  A
N13          N15   1.312       .  A
N13         Mn19   2.188       .  S
N14          C21   1.348       .  A
N15          N16   1.325       .  A
N15         Mn41   2.204       .  S
N16          C21   1.359       .  A
N17          N18   1.314       .  A
N17         Mn19   2.160       .  S
N18          C20   1.346       .  A
Mn19        Cl43   2.477       .  S
C20        C1325   1.475       .  S
C21        C1342   1.491       .  S
N22          N23   1.328       .  A
N22          N28   1.318       .  A
N22         Mn30   2.240       .  S
N23          C31   1.360       .  A
N24          N26   1.321       .  A
N24          N25   1.314       .  A
N24         Mn42   2.196       .  S
N25          C32   1.345       .  A
N26          N27   1.331       .  A
N26         Mn30   2.258       .  S
N27          C32   1.365       .  A
N28          N29   1.312       .  A
N28         Mn42   2.166       .  S
N29          C31   1.341       .  A
Mn30        Cl43   2.599       .  S
C31        C1292   1.479       .  S
C32        C1312   1.496       .  S
N33          N34   1.323       .  A
N33          N39   1.312       .  A
N33         Mn41   2.211       .  S
N34          C44   1.359       .  A
N35          N36   1.321       .  A
N35          N37   1.314       .  A
N35         Mn42   2.207       .  S
N36          C45   1.354       .  A
N37          N38   1.317       .  A
N37         Mn41   2.181       .  S
N38          C45   1.349       .  A
N39          N40   1.316       .  A
N39         Mn42   2.177       .  S
N40          C44   1.348       .  A
Mn41        Cl43   2.584       .  S
Mn42        Cl43   2.486       .  S
C44        C1335   1.483       .  S
C45        C1285   1.466       .  S
N46          N47   1.324   1_565  A
N46          N52   1.311       .  A
N46         Mn75   2.202       .  S
N47          C54   1.355       .  A
N48          N50   1.315       .  A
N48          N49   1.319       .  A
N48         Mn64   2.196       .  S
N49          C55   1.349       .  A
N50          N51   1.324       .  A
N50         Mn75   2.197       .  S
N51          C55   1.353       .  A
N52          N53   1.315   1_565  A
N52         Mn64   2.168       .  S
N53          C54   1.348       .  A
C54        C1322   1.469       .  S
C55        C1272   1.472       .  S
N56          N62   1.315       .  A
N56          N57   1.327       .  A
N56         Mn86   2.226       .  S
N57          C65   1.361       .  A
N58          N59   1.318       .  A
N58          N60   1.317       .  A
N58         Mn64   2.200       .  S
N59          C66   1.349       .  A
N60          N61   1.325       .  A
N60         Mn86   2.235       .  S
N61          C66   1.361       .  A
N62          N63   1.308       .  A
N62         Mn64   2.150       .  S
N63          C65   1.339       .  A
Mn64        Cl88   2.497       .  S
C65        C1265   1.461       .  S
C66        C1252   1.497       .  S
N67          N68   1.321       .  A
N67          N73   1.312       .  A
N67         Mn75   2.194       .  S
N68          C76   1.354       .  A
N69          N71   1.314       .  A
N69          N70   1.323       .  A
N69         Mn87   2.220       .  S
N70          C77   1.357       .  A
N71          N72   1.318       .  A
N71         Mn75   2.182       .  S
N72          C77   1.350       .  A
N73          N74   1.317       .  A
N73         Mn87   2.182       .  S
N74          C76   1.350       .  A
Mn75        Cl88   2.574       .  S
C76        C1245   1.473       .  S
C77        C1235   1.488       .  S
N78          N79   1.326       .  A
N78          N84   1.316       .  A
N78         Mn86   2.227       .  S
N79          C89   1.360       .  A
N80          N81   1.319       .  A
N80          N82   1.319       .  A
N80         Mn87   2.206       .  S
N81          C90   1.349       .  A
N82          N83   1.326       .  A
N82         Mn86   2.240       .  S
N83          C90   1.359       .  A
N84          N85   1.313       .  A
N84         Mn87   2.170       .  S
N85          C89   1.346       .  A
Mn86        Cl88   2.582       .  S
Mn87        Cl88   2.504       .  S
C89        C1222   1.481       .  S
C90        C1315   1.479       .  S
N91          N92   1.321       .  A
N91          N97   1.319       .  A
N91        Mn120   2.220       .  S
N92          C99   1.353       .  A
N93          N95   1.313       .  A
N93          N94   1.333       .  A
N93        Mn109   2.259       .  S
N94         C100   1.368       .  A
N95          N96   1.305       .  A
N95        Mn120   2.130       .  S
N96         C100   1.337       .  A
N97          N98   1.328       .  A
N97        Mn109   2.239       .  S
N98          C99   1.360       .  A
C99        C1305   1.491       .  S
C100       C1212   1.481       .  S
N101        N107   1.321       .  A
N101        N102   1.317   1_545  A
N101       Mn131   2.212       .  S
N102        C110   1.352       .  A
N103        N104   1.329       .  A
N103        N105   1.317       .  A
N103       Mn109   2.244       .  S
N104        C111   1.362       .  A
N105        N106   1.314       .  A
N105       Mn131   2.170       .  S
N106        C111   1.344       .  A
N107        N108   1.325   1_545  A
N107       Mn109   2.233       .  S
N108        C110   1.358       .  A
Mn109      Cl133   2.587       .  S
C110       C1185   1.489       .  S
C111       C1172   1.487       .  S
N112        N113   1.317       .  A
N112        N118   1.314       .  A
N112       Mn120   2.202       .  S
N113        C121   1.351       .  A
N114        N116   1.309       .  A
N114        N115   1.325       .  A
N114       Mn132   2.211       .  S
N115        C122   1.358       .  A
N116        N117   1.311       .  A
N116       Mn120   2.144       .  S
N117        C122   1.346       .  A
N118        N119   1.325       .  A
N118       Mn132   2.205       .  S
N119        C121   1.357       .  A
Mn120      Cl133   2.500       .  S
C121       C1202   1.493       .  S
C122       C1192   1.476       .  S
N123        N124   1.323       .  A
N123        N129   1.315       .  A
N123       Mn131   2.226       .  S
N124        C134   1.359       .  A
N125        N126   1.325       .  A
N125        N127   1.311       .  A
N125       Mn132   2.217       .  S
N126        C135   1.361       .  A
N127        N128   1.319       .  A
N127       Mn131   2.190       .  S
N128        C135   1.350       .  A
N129        N130   1.318       .  A
N129       Mn132   2.181       .  S
N130        C134   1.349       .  A
Mn131      Cl133   2.503       .  S
Mn132      Cl133   2.583       .  S
C134       C1162   1.477       .  S
C135       C1255   1.497       .  S
N136        N137   1.315       .  A
N136        N142   1.319       .  A
N136       Mn165   2.191       .  S
N137        C144   1.346       .  A
N138        N140   1.315       .  A
N138        N139   1.331       .  A
N138       Mn154   2.250       .  S
N139        C145   1.363       .  A
N140        N141   1.309       .  A
N140       Mn165   2.144       .  S
N141        C145   1.338       .  A
N142        N143   1.325       .  A
N142       Mn154   2.230       .  S
N143        C144   1.361       .  A
C144       C1332   1.484       .  S
C145       C1142   1.469       .  S
N146        N152   1.320       .  A
N146        N147   1.321       .  A
N146       Mn176   2.226       .  S
N147        C155   1.354       .  A
N148        N149   1.330       .  A
N148        N150   1.319       .  A
N148       Mn154   2.255       .  S
N149        C156   1.362       .  A
N150        N151   1.316       .  A
N150       Mn176   2.170       .  S
N151        C156   1.343       .  A
N152        N153   1.322       .  A
N152       Mn154   2.214       .  S
N153        C155   1.355       .  A
Mn154      Cl178   2.577       .  S
C155       C1182   1.483       .  S
C156       C1122   1.485       .  S
N157        N158   1.321       .  A
N157        N163   1.312       .  A
N157       Mn165   2.200       .  S
N158        C166   1.353       .  A
N159        N161   1.310       .  A
N159        N160   1.321       .  A
N159       Mn177   2.190       .  S
N160        C167   1.353       .  A
N161        N162   1.316       .  A
N161       Mn165   2.169       .  S
N162        C167   1.349       .  A
N163        N164   1.317       .  A
N163       Mn177   2.174       .  S
N164        C166   1.352       .  A
Mn165      Cl178   2.501       .  S
C166       C1152   1.481       .  S
C167       C1195   1.468       .  S
N168        N169   1.330       .  A
N168        N174   1.314       .  A
N168       Mn176   2.246       .  S
N169        C179   1.365       .  A
N170        N171   1.323       .  A
N170        N172   1.311       .  A
N170       Mn177   2.191       .  S
N171        C180   1.356       .  A
N172        N173   1.314       .  A
N172       Mn176   2.179       .  S
N173        C180   1.349       .  A
N174        N175   1.310       .  A
N174       Mn177   2.156       .  S
N175        C179   1.341       .  A
Mn176      Cl178   2.504       .  S
Mn177      Cl178   2.578       .  S
C179       C1135   1.485       .  S
C180       C1242   1.478       .  S
N181        N182   1.321       .  A
N181        N187   1.313       .  A
N181       Mn210   2.188       .  S
N182        C189   1.351       .  A
N183        N185   1.311       .  A
N183        N184   1.314       .  A
N183       Mn199   2.154       .  S
N184        C190   1.344       .  A
N185        N186   1.324   1_554  A
N185       Mn210   2.212       .  S
N186        C190   1.357   1_556  A
N187        N188   1.317       .  A
N187       Mn199   2.189       .  S
N188        C189   1.349       .  A
C189       C1282   1.461       .  S
C190       C1102   1.462       .  S
N191        N197   1.315       .  A
N191        N192   1.319   1_554  A
N191       Mn221   2.180       .  S
N192        C200   1.352   1_556  A
N193        N194   1.310       .  A
N193        N195   1.315       .  A
N193       Mn199   2.163       .  S
N194        C201   1.335       .  A
N195        N196   1.333       .  A
N195       Mn221   2.246       .  S
N196        C201   1.363       .  A
N197        N198   1.321       .  A
N197       Mn199   2.238       .  S
N198        C200   1.354       .  A
Mn199      Cl223   2.480       .  S
C200       C1082   1.486       .  S
C201       C1165   1.484       .  S
N202        N203   1.312       .  A
N202        N208   1.314       .  A
N202       Mn210   2.172   1_556  S
N203        C211   1.346       .  A
N204        N206   1.312       .  A
N204        N205   1.320       .  A
N204       Mn222   2.193       .  S
N205        C212   1.351       .  A
N206        N207   1.322   1_556  A
N206       Mn210   2.206   1_556  S
N207        C212   1.357   1_554  A
N208        N209   1.323       .  A
N208       Mn222   2.211       .  S
N209        C211   1.358       .  A
Mn210      Cl223   2.564       .  S
C211       C1062   1.478       .  S
C212       C1115   1.486   1_556  S
N213        N214   1.323   1_556  A
N213        N219   1.320       .  A
N213       Mn221   2.224   1_556  S
N214        C224   1.358   1_554  A
N215        N216   1.317       .  A
N215        N217   1.318       .  A
N215       Mn222   2.177       .  S
N216        C225   1.346       .  A
N217        N218   1.324       .  A
N217       Mn221   2.224   1_556  S
N218        C225   1.355       .  A
N219        N220   1.313       .  A
N219       Mn222   2.183       .  S
N220        C224   1.343       .  A
Mn221      Cl223   2.581       .  S
Mn222      Cl223   2.512   1_556  S
C224       C1092   1.461   1_556  S
C225       C1075   1.474       .  S
N226        N227   1.321       .  A
N226        N232   1.314       .  A
N226       Mn255   2.205       .  S
N227        C234   1.356       .  A
N228        N230   1.312       .  A
N228        N229   1.313       .  A
N228       Mn244   2.146       .  S
N229        C235   1.343       .  A
N230        N231   1.323       .  A
N230       Mn255   2.210       .  S
N231        C235   1.356       .  A
N232        N233   1.318       .  A
N232       Mn244   2.186       .  S
N233        C234   1.348       .  A
C234       C1225   1.477       .  S
C235       C1095   1.458       .  S
N236        N242   1.318       .  A
N236        N237   1.322   1_554  A
N236       Mn266   2.212       .  S
N237        C245   1.357   1_556  A
N238        N239   1.308       .  A
N238        N240   1.312       .  A
N238       Mn244   2.136       .  S
N239        C246   1.336       .  A
N240        N241   1.333       .  A
N240       Mn266   2.254       .  S
N241        C246   1.367       .  A
N242        N243   1.324       .  A
N242       Mn244   2.236       .  S
N243        C245   1.357       .  A
Mn244      Cl268   2.501       .  S
C245       C1042   1.497       .  S
C246       C1125   1.474       .  S
N247        N248   1.317       .  A
N247        N253   1.316       .  A
N247       Mn255   2.190   1_556  S
N248        C256   1.349       .  A
N249        N251   1.312       .  A
N249        N250   1.321       .  A
N249       Mn267   2.191       .  S
N250        C257   1.351       .  A
N251        N252   1.324   1_556  A
N251       Mn255   2.217   1_556  S
N252        C257   1.359   1_554  A
N253        N254   1.327       .  A
N253       Mn267   2.241       .  S
N254        C256   1.362       .  A
Mn255      Cl268   2.568       .  S
C256       C1022   1.492       .  S
C257       C1052   1.489       .  S
N258        N259   1.322   1_556  A
N258        N264   1.322       .  A
N258       Mn266   2.215   1_556  S
N259        C269   1.355   1_554  A
N260        N261   1.317       .  A
N260        N262   1.321       .  A
N260       Mn267   2.169       .  S
N261        C270   1.343       .  A
N262        N263   1.326       .  A
N262       Mn266   2.234   1_556  S
N263        C270   1.355       .  A
N264        N265   1.315       .  A
N264       Mn267   2.203       .  S
N265        C269   1.347       .  A
Mn266      Cl268   2.580       .  S
Mn267      Cl268   2.512   1_556  S
C269       C1105   1.462       .  S
C270       C1032   1.486       .  S
N271        N272   1.325       .  A
N271        N277   1.314       .  A
N271       Mn300   2.220       .  S
N272        C279   1.358       .  A
N273        N275   1.310       .  A
N273        N274   1.316   1_455  A
N273       Mn289   2.164   1_455  S
N274        C280   1.349   1_654  A
N275        N276   1.321   1_554  A
N275       Mn300   2.198       .  S
N276        C280   1.355       .  A
N277        N278   1.319       .  A
N277       Mn289   2.187   1_455  S
N278        C279   1.349       .  A
C279       C1175   1.490   1_565  S
C280       C1005   1.477       .  S
N281        N287   1.319       .  A
N281        N282   1.328   1_554  A
N281       Mn311   2.239   1_565  S
N282        C290   1.362   1_556  A
N283        N284   1.308   1_545  A
N283        N285   1.314       .  A
N283       Mn289   2.154   1_545  S
N284        C291   1.339   1_565  A
N285        N286   1.330       .  A
N285       Mn311   2.232       .  S
N286        C291   1.361       .  A
N287        N288   1.317       .  A
N287       Mn289   2.207       .  S
N288        C290   1.350       .  A
Mn289      Cl313   2.493   1_655  S
C290       C1055   1.492   1_554  S
C291       C1232   1.471       .  S
N292        N293   1.320       .  A
N292        N298   1.317       .  A
N292       Mn300   2.206   1_556  S
N293        C301   1.351       .  A
N294        N296   1.310       .  A
N294        N295   1.317       .  A
N294       Mn312   2.184       .  S
N295        C302   1.351   1_556  A
N296        N297   1.323   1_556  A
N296       Mn300   2.196   1_546  S
N297        C302   1.356       .  A
N298        N299   1.323       .  A
N298       Mn312   2.219   1_565  S
N299        C301   1.356       .  A
Mn300      Cl313   2.573       .  S
C301        C995   1.475       .  S
C302       C1085   1.487       .  S
N303        N304   1.328       .  A
N303        N309   1.319   1_654  A
N303       Mn311   2.238       .  S
N304        C314   1.363   1_655  A
N305        N306   1.317       .  A
N305        N307   1.319       .  A
N305       Mn312   2.179   1_655  S
N306        C315   1.344       .  A
N307        N308   1.326       .  A
N307       Mn311   2.233   1_556  S
N308        C315   1.359       .  A
N309        N310   1.310       .  A
N309       Mn312   2.184       .  S
N310        C314   1.343   1_556  A
Mn311      Cl313   2.592   1_645  S
Mn312      Cl313   2.503   1_546  S
C314       C1012   1.485       .  S
C315        C982   1.494       .  S
N316        N317   1.321       .  A
N316        N322   1.316       .  A
N316       Mn345   2.196       .  S
N317        C324   1.353       .  A
N318        N320   1.311   1_454  A
N318        N319   1.313       .  A
N318       Mn334   2.156       .  S
N319        C325   1.346   1_454  A
N320        N321   1.324       .  A
N320       Mn345   2.209   1_556  S
N321        C325   1.357       .  A
N322        N323   1.320       .  A
N322       Mn334   2.200   1_655  S
N323        C324   1.349       .  A
C324       C1295   1.475       .  S
C325       C1002   1.473       .  S
N326        N332   1.320   1_556  A
N326        N327   1.325       .  A
N326       Mn356   2.225   1_556  S
N327        C335   1.357       .  A
N328        N329   1.308       .  A
N328        N330   1.313       .  A
N328       Mn334   2.138       .  S
N329        C336   1.337       .  A
N330        N331   1.330       .  A
N330       Mn356   2.223       .  S
N331        C336   1.360       .  A
N332        N333   1.321       .  A
N332       Mn334   2.222       .  S
N333        C335   1.354   1_554  A
Mn334      Cl358   2.498       .  S
C335       C1045   1.490       .  S
C336       C1132   1.463       .  S
N337        N338   1.313       .  A
N337        N343   1.317       .  A
N337       Mn345   2.178   1_556  S
N338        C346   1.346       .  A
N339        N341   1.311   1_556  A
N339        N340   1.316       .  A
N339       Mn357   2.181       .  S
N340        C347   1.348   1_556  A
N341        N342   1.327       .  A
N341       Mn345   2.214       .  S
N342        C347   1.360       .  A
N343        N344   1.328       .  A
N343       Mn357   2.247       .  S
N344        C346   1.364       .  A
Mn345      Cl358   2.576   1_655  S
C346        C962   1.489       .  S
C347       C1112   1.485       .  S
N348        N349   1.321       .  A
N348        N354   1.320   1_554  A
N348       Mn356   2.213       .  S
N349        C359   1.354       .  A
N350        N351   1.318       .  A
N350        N352   1.319       .  A
N350       Mn357   2.182   1_455  S
N351        C360   1.348       .  A
N352        N353   1.323       .  A
N352       Mn356   2.215   1_556  S
N353        C360   1.353       .  A
N354        N355   1.318   1_455  A
N354       Mn357   2.210   1_455  S
N355        C359   1.350   1_656  A
Mn356      Cl358   2.579       .  S
Mn357      Cl358   2.511   1_656  S
C359       C1015   1.464       .  S
C360        C972   1.488       .  S
N361        N362   1.331       .  A
N361        N367   1.313       .  A
N361       Mn390   2.248       .  S
N362        C369   1.365       .  A
N363        N365   1.318       .  A
N363        N364   1.319       .  A
N363       Mn379   2.207       .  S
N364        C370   1.349       .  A
N365        N366   1.323       .  A
N365       Mn390   2.217       .  S
N366        C370   1.356       .  A
N367        N368   1.308       .  A
N367       Mn379   2.143       .  S
N368        C369   1.338       .  A
C369        C985   1.472       .  S
C370        C922   1.473       .  S
N371        N377   1.310       .  A
N371        N372   1.323   1_545  A
N371       Mn401   2.200       .  S
N372        C380   1.356       .  A
N373        N374   1.315       .  A
N373        N375   1.312       .  A
N373       Mn379   2.187       .  S
N374        C381   1.350       .  A
N375        N376   1.322       .  A
N375       Mn401   2.183       .  S
N376        C381   1.353       .  A
N377        N378   1.311   1_545  A
N377       Mn379   2.148       .  S
N378        C380   1.347       .  A
Mn379      Cl403   2.499       .  S
C380        C935   1.475       .  S
C381       C1065   1.475       .  S
N382        N383   1.326       .  A
N382        N388   1.319       .  A
N382       Mn390   2.243       .  S
N383        C391   1.359       .  A
N384        N386   1.320       .  A
N384        N385   1.318       .  A
N384       Mn402   2.212       .  S
N385        C392   1.350       .  A
N386        N387   1.324       .  A
N386       Mn390   2.216       .  S
N387        C392   1.355       .  A
N388        N389   1.316       .  A
N388       Mn402   2.176       .  S
N389        C391   1.345       .  A
Mn390      Cl403   2.580       .  S
C391        C912   1.480       .  S
C392        C942   1.470       .  S
N393        N394   1.321       .  A
N393        N399   1.312       .  A
N393       Mn401   2.195       .  S
N394        C404   1.355       .  A
N395        N396   1.329       .  A
N395        N397   1.314       .  A
N395       Mn402   2.244       .  S
N396        C405   1.365       .  A
N397        N398   1.311       .  A
N397       Mn401   2.159       .  S
N398        C405   1.342       .  A
N399        N400   1.318       .  A
N399       Mn402   2.183       .  S
N400        C404   1.350       .  A
Mn401      Cl403   2.562       .  S
Mn402      Cl403   2.514       .  S
C404        C952   1.476       .  S
C405        C905   1.486       .  S
N406        N407   1.333       .  A
N406        N412   1.316       .  A
N406       Mn435   2.256       .  S
N407        C414   1.365       .  A
N408        N410   1.320       .  A
N408        N409   1.322       .  A
N408       Mn424   2.224       .  S
N409        C415   1.353       .  A
N410        N411   1.327       .  A
N410       Mn435   2.249       .  S
N411        C415   1.362       .  A
N412        N413   1.309       .  A
N412       Mn424   2.146       .  S
N413        C414   1.338       .  A
C414       C1025   1.475       .  S
C415        C895   1.504       .  S
N416        N422   1.311       .  A
N416        N417   1.320       .  A
N416       Mn446   2.185       .  S
N417        C425   1.351       .  A
N418        N419   1.322       .  A
N418        N420   1.316       .  A
N418       Mn424   2.218       .  S
N419        C426   1.353       .  A
N420        N421   1.320       .  A
N420       Mn446   2.182       .  S
N421        C426   1.349       .  A
N422        N423   1.315       .  A
N422       Mn424   2.164       .  S
N423        C425   1.347       .  A
Mn424      Cl448   2.500       .  S
C425        C932   1.455       .  S
C426        C965   1.472       .  S
N427        N428   1.330       .  A
N427        N433   1.319       .  A
N427       Mn435   2.252       .  S
N428        C436   1.362       .  A
N429        N431   1.321       .  A
N429        N430   1.313       .  A
N429       Mn447   2.193       .  S
N430        C437   1.346       .  A
N431        N432   1.328       .  A
N431       Mn435   2.238       .  S
N432        C437   1.360       .  A
N433        N434   1.313       .  A
N433       Mn447   2.160       .  S
N434        C436   1.340       .  A
Mn435      Cl448   2.595       .  S
C436        C862   1.477       .  S
C437        C945   1.477       .  S
N438        N439   1.322       .  A
N438        N444   1.310       .  A
N438       Mn446   2.195       .  S
N439        C449   1.355       .  A
N440        N441   1.325       .  A
N440        N442   1.314       .  A
N440       Mn447   2.221       .  S
N441        C450   1.357       .  A
N442        N443   1.315       .  A
N442       Mn446   2.175       .  S
N443        C450   1.347       .  A
N444        N445   1.320       .  A
N444       Mn447   2.191       .  S
N445        C449   1.353       .  A
Mn446      Cl448   2.574       .  S
Mn447      Cl448   2.500       .  S
C449        C882   1.488       .  S
C450        C875   1.467       .  S
N451        N452   1.330       .  A
N451        N457   1.312       .  A
N451       Mn480   2.235       .  S
N452        C459   1.364       .  A
N453        N455   1.316       .  A
N453        N454   1.317       .  A
N453       Mn469   2.196       .  S
N454        C460   1.351       .  A
N455        N456   1.324       .  A
N455       Mn480   2.225       .  S
N456        C460   1.359       .  A
N457        N458   1.306       .  A
N457       Mn469   2.133       .  S
N458        C459   1.338       .  A
C459        C975   1.469       .  S
C460        C885   1.490       .  S
N461        N467   1.310       .  A
N461        N462   1.322       .  A
N461       Mn491   2.204       .  S
N462        C470   1.357       .  A
N463        N464   1.319       .  A
N463        N465   1.315       .  A
N463       Mn469   2.189       .  S
N464        C471   1.346       .  A
N465        N466   1.323       .  A
N465       Mn491   2.205       .  S
N466        C471   1.355       .  A
N467        N468   1.311       .  A
N467       Mn469   2.137       .  S
N468        C470   1.343       .  A
Mn469      Cl493   2.501       .  S
C470        C845   1.458       .  S
C471       C1072   1.476       .  S
N472        N473   1.324       .  A
N472        N478   1.318       .  A
N472       Mn480   2.222       .  S
N473        C481   1.356       .  A
N474        N476   1.319       .  A
N474        N475   1.318       .  A
N474       Mn492   2.212       .  S
N475        C482   1.351       .  A
N476        N477   1.321       .  A
N476       Mn480   2.208       .  S
N477        C482   1.355       .  A
N478        N479   1.316       .  A
N478       Mn492   2.175       .  S
N479        C481   1.346       .  A
Mn480      Cl493   2.578       .  S
C481        C832   1.487       .  S
C482        C852   1.474       .  S
N483        N484   1.325       .  A
N483        N489   1.311       .  A
N483       Mn491   2.203       .  S
N484        C494   1.358       .  A
N485        N486   1.325       .  A
N485        N487   1.317       .  A
N485       Mn492   2.235       .  S
N486        C495   1.359       .  A
N487        N488   1.317       .  A
N487       Mn491   2.185       .  S
N488        C495   1.348       .  A
N489        N490   1.313       .  A
N489       Mn492   2.172       .  S
N490        C494   1.348       .  A
Mn491      Cl493   2.567       .  S
Mn492      Cl493   2.506       .  S
C494        C955   1.479       .  S
C495        C825   1.474       .  S
N496        N497   1.329       .  A
N496        N502   1.313       .  A
N496       Mn525   2.236       .  S
N497        C504   1.364       .  A
N498        N500   1.319       .  A
N498        N499   1.326       .  A
N498       Mn514   2.254       .  S
N499        C505   1.360       .  A
N500        N501   1.325       .  A
N500       Mn525   2.221       .  S
N501        C505   1.357       .  A
N502        N503   1.308       .  A
N502       Mn514   2.142       .  S
N503        C504   1.338       .  A
C504       C1035   1.466       .  S
C505        C892   1.504       .  S
N506        N512   1.310       .  A
N506        N507   1.324       .  A
N506       Mn536   2.199       .  S
N507        C515   1.356       .  A
N508        N509   1.320       .  A
N508        N510   1.317       .  A
N508       Mn514   2.211       .  S
N509        C516   1.350       .  A
N510        N511   1.324       .  A
N510       Mn536   2.207       .  S
N511        C516   1.354       .  A
N512        N513   1.310       .  A
N512       Mn514   2.153       .  S
N513        C515   1.347       .  A
Mn514      Cl538   2.495       .  S
C515        C842   1.475       .  S
C516        C992   1.476       .  S
N517        N518   1.328       .  A
N517        N523   1.316       .  A
N517       Mn525   2.236       .  S
N518        C526   1.361       .  A
N519        N521   1.320       .  A
N519        N520   1.318       .  A
N519       Mn537   2.207       .  S
N520        C527   1.351   1_565  A
N521        N522   1.322       .  A
N521       Mn525   2.222       .  S
N522        C527   1.357   1_565  A
N523        N524   1.312       .  A
N523       Mn537   2.166       .  S
N524        C526   1.344       .  A
Mn525      Cl538   2.586       .  S
C526        C802   1.482       .  S
C527        C855   1.482       .  S
N528        N529   1.324       .  A
N528        N534   1.312       .  A
N528       Mn536   2.207       .  S
N529        C539   1.355       .  A
N530        N531   1.322       .  A
N530        N532   1.315       .  A
N530       Mn537   2.221       .  S
N531        C540   1.357       .  A
N532        N533   1.320       .  A
N532       Mn536   2.195       .  S
N533        C540   1.352       .  A
N534        N535   1.320       .  A
N534       Mn537   2.191       .  S
N535        C539   1.350       .  A
Mn536      Cl538   2.585       .  S
Mn537      Cl538   2.503       .  S
C539        C925   1.475       .  S
C540        C815   1.488       .  S
N541        N542   1.318       .  A
N541        N547   1.316       .  A
N541       Mn570   2.208       .  S
N542        C549   1.353       .  A
N543        N545   1.312       .  A
N543        N544   1.321       .  A
N543       Mn559   2.199       .  S
N544        C550   1.352       .  A
N545        N546   1.324       .  A
N545       Mn570   2.211   1_565  S
N546        C550   1.359       .  A
N547        N548   1.323       .  A
N547       Mn559   2.211   1_545  S
N548        C549   1.356       .  A
C549       C1205   1.485       .  S
C550        C765   1.494       .  S
N551        N557   1.320       .  A
N551        N552   1.322       .  A
N551       Mn581   2.218       .  S
N552        C560   1.356       .  A
N553        N554   1.317       .  A
N553        N555   1.319       .  A
N553       Mn559   2.180       .  S
N554        C561   1.347       .  A
N555        N556   1.322       .  A
N555       Mn581   2.209       .  S
N556        C561   1.351       .  A
N557        N558   1.312       .  A
N557       Mn559   2.175       .  S
N558        C560   1.342       .  A
Mn559      Cl583   2.517       .  S
C560        C772   1.455       .  S
C561       C1262   1.485       .  S
N562        N563   1.323       .  A
N562        N568   1.316       .  A
N562       Mn570   2.218       .  S
N563        C571   1.357       .  A
N564        N566   1.310       .  A
N564        N565   1.314       .  A
N564       Mn582   2.158       .  S
N565        C572   1.348       .  A
N566        N567   1.323       .  A
N566       Mn570   2.210       .  S
N567        C572   1.358       .  A
N568        N569   1.318       .  A
N568       Mn582   2.181       .  S
N569        C571   1.347       .  A
Mn570      Cl583   2.567   1_545  S
C571        C805   1.478   1_545  S
C572        C782   1.483       .  S
N573        N574   1.323       .  A
N573        N579   1.318       .  A
N573       Mn581   2.219   1_545  S
N574        C584   1.358       .  A
N575        N576   1.308       .  A
N575        N577   1.313       .  A
N575       Mn582   2.147   1_565  S
N576        C585   1.339       .  A
N577        N578   1.329       .  A
N577       Mn581   2.221       .  S
N578        C585   1.359       .  A
N579        N580   1.318       .  A
N579       Mn582   2.205       .  S
N580        C584   1.351       .  A
Mn581      Cl583   2.572       .  S
Mn582      Cl583   2.504   1_545  S
C584        C795   1.484       .  S
C585        C902   1.465       .  S
N586        N587   1.317       .  A
N586        N592   1.316       .  A
N586       Mn615   2.189       .  S
N587        C594   1.349       .  A
N588        N590   1.312       .  A
N588        N589   1.321       .  A
N588       Mn604   2.199       .  S
N589        C595   1.353       .  A
N590        N591   1.321       .  A
N590       Mn615   2.198       .  S
N591        C595   1.355       .  A
N592        N593   1.325       .  A
N592       Mn604   2.234       .  S
N593        C594   1.361       .  A
C594       C1145   1.489       .  S
C595        C745   1.485       .  S
N596        N602   1.320       .  A
N596        N597   1.320       .  A
N596       Mn626   2.216       .  S
N597        C605   1.355       .  A
N598        N599   1.317       .  A
N598        N600   1.319       .  A
N598       Mn604   2.182       .  S
N599        C606   1.346       .  A
N600        N601   1.326       .  A
N600       Mn626   2.238       .  S
N601        C606   1.359       .  A
N602        N603   1.317       .  A
N602       Mn604   2.207       .  S
N603        C605   1.352       .  A
Mn604      Cl628   2.512       .  S
C605        C785   1.484       .  S
C606       C1345   1.489       .  S
N607        N608   1.324       .  A
N607        N613   1.314       .  A
N607       Mn615   2.203       .  S
N608        C616   1.354       .  A
N609        N611   1.311       .  A
N609        N610   1.312       .  A
N609       Mn627   2.143       .  S
N610        C617   1.342       .  A
N611        N612   1.322       .  A
N611       Mn615   2.203       .  S
N612        C617   1.355       .  A
N613        N614   1.319       .  A
N613       Mn627   2.195       .  S
N614        C616   1.349       .  A
Mn615      Cl628   2.573       .  S
C616        C822   1.473       .  S
C617        C775   1.454       .  S
N618        N619   1.321       .  A
N618        N624   1.318       .  A
N618       Mn626   2.203       .  S
N619        C629   1.355       .  A
N620        N621   1.307       .  A
N620        N622   1.312       .  A
N620       Mn627   2.138       .  S
N621        C630   1.336       .  A
N622        N623   1.332       .  A
N622       Mn626   2.251       .  S
N623        C630   1.366       .  A
N624        N625   1.324       .  A
N624       Mn627   2.243       .  S
N625        C629   1.357       .  A
Mn626      Cl628   2.577       .  S
Mn627      Cl628   2.500       .  S
C629        C752   1.493       .  S
C630        C865   1.471       .  S
N631        N632   1.322       .  A
N631        N637   1.317       .  A
N631       Mn660   2.209       .  S
N632        C639   1.353       .  A
N633        N635   1.310       .  A
N633        N634   1.318       .  A
N633       Mn649   2.183       .  S
N634        C640   1.349       .  A
N635        N636   1.324       .  A
N635       Mn660   2.204       .  S
N636        C640   1.358       .  A
N637        N638   1.320       .  A
N637       Mn649   2.210       .  S
N638        C639   1.355       .  A
C639       C1355   1.479       .  S
C640        C792   1.485       .  S
N641        N647   1.319   1_455  A
N641        N642   1.322       .  A
N641       Mn671   2.211       .  S
N642        C650   1.354       .  A
N643        N644   1.319       .  A
N643        N645   1.319       .  A
N643       Mn649   2.183   1_455  S
N644        C651   1.347       .  A
N645        N646   1.323       .  A
N645       Mn671   2.219       .  S
N646        C651   1.355       .  A
N647        N648   1.311       .  A
N647       Mn649   2.178       .  S
N648        C650   1.343   1_655  A
Mn649      Cl673   2.506       .  S
C650        C732   1.449       .  S
C651       C1215   1.489       .  S
N652        N653   1.326       .  A
N652        N658   1.315       .  A
N652       Mn660   2.221       .  S
N653        C661   1.359       .  A
N654        N656   1.311       .  A
N654        N655   1.313   1_655  A
N654       Mn672   2.145   1_655  S
N655        C662   1.343   1_455  A
N656        N657   1.322       .  A
N656       Mn660   2.203       .  S
N657        C662   1.354       .  A
N658        N659   1.317       .  A
N658       Mn672   2.187   1_655  S
N659        C661   1.346       .  A
Mn660      Cl673   2.568       .  S
C661        C915   1.481       .  S
C662        C725   1.452       .  S
N663        N664   1.325       .  A
N663        N669   1.317       .  A
N663       Mn671   2.228       .  S
N664        C674   1.360       .  A
N665        N666   1.307       .  A
N665        N667   1.311       .  A
N665       Mn672   2.134       .  S
N666        C675   1.338       .  A
N667        N668   1.329       .  A
N667       Mn671   2.231       .  S
N668        C675   1.364       .  A
N669        N670   1.317       .  A
N669       Mn672   2.201       .  S
N670        C674   1.350       .  A
Mn671      Cl673   2.579   1_455  S
Mn672      Cl673   2.500   1_455  S
C674        C742   1.489       .  S
C675        C835   1.469       .  S
N676        N677   1.320       .  A
N676        N682   1.317       .  A
N676       Mn705   2.204       .  S
N677        C684   1.352       .  A
N678        N680   1.311       .  A
N678        N679   1.322       .  A
N678       Mn694   2.205       .  S
N679        C685   1.354       .  A
N680        N681   1.325       .  A
N680       Mn705   2.208       .  S
N681        C685   1.357       .  A
N682        N683   1.322       .  A
N682       Mn694   2.212       .  S
N683        C684   1.353       .  A
C684       C1275   1.469       .  S
C685        C755   1.496       .  S
N686        N692   1.321   1_455  A
N686        N687   1.322       .  A
N686       Mn716   2.222       .  S
N687        C695   1.355       .  A
N688        N689   1.316       .  A
N688        N690   1.317       .  A
N688       Mn694   2.184   1_455  S
N689        C696   1.347       .  A
N690        N691   1.323       .  A
N690       Mn716   2.210       .  S
N691        C696   1.355       .  A
N692        N693   1.313       .  A
N692       Mn694   2.182       .  S
N693        C695   1.343   1_655  A
Mn694      Cl718   2.509       .  S
C695        C722   1.452       .  S
C696       C1155   1.479       .  S
N697        N698   1.324       .  A
N697        N703   1.316       .  A
N697       Mn705   2.203       .  S
N698        C706   1.355       .  A
N699        N701   1.311       .  A
N699        N700   1.310   1_655  A
N699       Mn717   2.135   1_655  S
N700        C707   1.340   1_455  A
N701        N702   1.323       .  A
N701       Mn705   2.204       .  S
N702        C707   1.356       .  A
N703        N704   1.317       .  A
N703       Mn717   2.198   1_655  S
N704        C706   1.348       .  A
Mn705      Cl718   2.576       .  S
C706        C872   1.485       .  S
C707        C735   1.449       .  S
N708        N709   1.325       .  A
N708        N714   1.317       .  A
N708       Mn716   2.216       .  S
N709        C719   1.360       .  A
N710        N711   1.310       .  A
N710        N712   1.314       .  A
N710       Mn717   2.152       .  S
N711        C720   1.338       .  A
N712        N713   1.331       .  A
N712       Mn716   2.235       .  S
N713        C720   1.361       .  A
N714        N715   1.320       .  A
N714       Mn717   2.223       .  S
N715        C719   1.353       .  A
Mn716      Cl718   2.587   1_455  S
Mn717      Cl718   2.486   1_455  S
C719        C762   1.497       .  S
C720        C812   1.475       .  S
C721        C722   1.399       .  A
C721        C726   1.393       .  A
C721        H728   1.084       .  S
C722        C723   1.405   1_455  A
C723        C724   1.395       .  A
C723       Br730   1.919       .  S
C724        C725   1.400       .  A
C724        H729   1.084       .  S
C725        C726   1.404   1_655  A
C726       Br727   1.918       .  S
C731        C732   1.399       .  A
C731        C736   1.392   1_545  A
C731        H738   1.084       .  S
C732        C733   1.403   1_455  A
C733        C734   1.394   1_545  A
C733       Br740   1.919       .  S
C734        C735   1.400       .  A
C734        H739   1.084       .  S
C735        C736   1.405   1_655  A
C736       Br737   1.918       .  S
C741        C742   1.405       .  A
C741        C746   1.403       .  A
C741        H748   1.083       .  S
C742        C743   1.417       .  A
C743        C744   1.398       .  A
C743       Br750   1.920       .  S
C744        C745   1.401       .  A
C744        H749   1.084       .  S
C745        C746   1.413       .  A
C746       Br747   1.917       .  S
C751        C752   1.405       .  A
C751        C756   1.403       .  A
C751        H758   1.083       .  S
C752        C753   1.414       .  A
C753        C754   1.407       .  A
C753       Br760   1.921       .  S
C754        C755   1.408       .  A
C754        H759   1.083       .  S
C755        C756   1.415       .  A
C756       Br757   1.921       .  S
C761        C762   1.407       .  A
C761        C766   1.406       .  A
C761        H768   1.083       .  S
C762        C763   1.417       .  A
C763        C764   1.402       .  A
C763       Br770   1.920       .  S
C764        C765   1.404       .  A
C764        H769   1.083       .  S
C765        C766   1.416       .  A
C766       Br767   1.923       .  S
C771        C772   1.403       .  A
C771        C776   1.393       .  A
C771        H778   1.084       .  S
C772        C773   1.403       .  A
C773        C774   1.393       .  A
C773       Br780   1.919       .  S
C774        C775   1.402       .  A
C774        H779   1.084       .  S
C775        C776   1.403       .  A
C776       Br777   1.921       .  S
C781        C782   1.408       .  A
C781        C786   1.395       .  A
C781        H788   1.083       .  S
C782        C783   1.410       .  A
C783        C784   1.399       .  A
C783       Br790   1.921       .  S
C784        C785   1.408       .  A
C784        H789   1.082       .  S
C785        C786   1.412       .  A
C786       Br787   1.923       .  S
C791        C792   1.403       .  A
C791        C796   1.400       .  A
C791        H798   1.083       .  S
C792        C793   1.416       .  A
C793        C794   1.400       .  A
C793       Br800   1.921       .  S
C794        C795   1.403       .  A
C794        H799   1.083       .  S
C795        C796   1.414       .  A
C796       Br797   1.920       .  S
C801        C802   1.409       .  A
C801        C806   1.395       .  A
C801        H808   1.083       .  S
C802        C803   1.407       .  A
C803        C804   1.404       .  A
C803       Br810   1.918       .  S
C804        C805   1.410       .  A
C804        H809   1.084       .  S
C805        C806   1.404       .  A
C806       Br807   1.920   1_565  S
C811        C812   1.399       .  A
C811        C816   1.406       .  A
C811        H818   1.083       .  S
C812        C813   1.413       .  A
C813        C814   1.394       .  A
C813       Br820   1.914       .  S
C814        C815   1.399       .  A
C814        H819   1.083       .  S
C815        C816   1.416       .  A
C816       Br817   1.911       .  S
C821        C822   1.404       .  A
C821        C826   1.400       .  A
C821        H828   1.084       .  S
C822        C823   1.405       .  A
C823        C824   1.402       .  A
C823       Br830   1.918       .  S
C824        C825   1.405       .  A
C824        H829   1.084       .  S
C825        C826   1.407       .  A
C826       Br827   1.918       .  S
C831        C832   1.411       .  A
C831        C836   1.398       .  A
C831        H838   1.083       .  S
C832        C833   1.413       .  A
C833        C834   1.399       .  A
C833       Br840   1.921       .  S
C834        C835   1.406       .  A
C834        H839   1.085       .  S
C835        C836   1.405       .  A
C836       Br837   1.919       .  S
C841        C842   1.405       .  A
C841        C846   1.388       .  A
C841        H848   1.071       .  S
C842        C843   1.410       .  A
C843        C844   1.399       .  A
C843       Br850   1.919       .  S
C844        C845   1.406       .  A
C844        H849   1.083       .  S
C845        C846   1.400       .  A
C846       Br847   1.924       .  S
C851        C852   1.400       .  A
C851        C856   1.398       .  A
C851        H858   1.084       .  S
C852        C853   1.407       .  A
C853        C854   1.399       .  A
C853       Br860   1.916       .  S
C854        C855   1.405       .  A
C854        H859   1.083       .  S
C855        C856   1.416       .  A
C856       Br857   1.919       .  S
C861        C862   1.405       .  A
C861        C866   1.407       .  A
C861        H868   1.083       .  S
C862        C863   1.408       .  A
C863        C864   1.398       .  A
C863       Br870   1.922       .  S
C864        C865   1.406       .  A
C864        H869   1.085       .  S
C865        C866   1.408       .  A
C866       Br867   1.915       .  S
C871        C872   1.408       .  A
C871        C876   1.403       .  A
C871        H878   1.083       .  S
C872        C873   1.419       .  A
C873        C874   1.393       .  A
C873       Br880   1.922       .  S
C874        C875   1.396       .  A
C874        H879   1.084       .  S
C875        C876   1.405       .  A
C876       Br877   1.916       .  S
C881        C882   1.407       .  A
C881        C886   1.402   1_655  A
C881        H888   1.083       .  S
C882        C883   1.413   1_655  A
C883        C884   1.400       .  A
C883       Br890   1.921       .  S
C884        C885   1.408       .  A
C884        H889   1.084       .  S
C885        C886   1.414       .  A
C886       Br887   1.920   1_455  S
C891        C892   1.407       .  A
C891        C896   1.410       .  A
C891        H898   1.083       .  S
C892        C893   1.412       .  A
C893        C894   1.406       .  A
C893       Br900   1.902       .  S
C894        C895   1.405       .  A
C894        H899   1.083       .  S
C895        C896   1.420       .  A
C896       Br897   1.921       .  S
C901        C902   1.397       .  A
C901        C906   1.395       .  A
C901        H908   1.085       .  S
C902        C903   1.411       .  A
C903        C904   1.405   1_565  A
C903       Br910   1.919   1_565  S
C904        C905   1.404       .  A
C904        H909   1.083       .  S
C905        C906   1.421   1_545  A
C906       Br907   1.926       .  S
C911        C912   1.402       .  A
C911        C916   1.401       .  A
C911        H918   1.084       .  S
C912        C913   1.412       .  A
C913        C914   1.402       .  A
C913       Br920   1.920       .  S
C914        C915   1.403       .  A
C914        H919   1.084       .  S
C915        C916   1.413       .  A
C916       Br917   1.920       .  S
C921        C922   1.403   1_565  A
C921        C926   1.402       .  A
C921        H928   1.084       .  S
C922        C923   1.408       .  A
C923        C924   1.401   1_645  A
C923       Br930   1.919       .  S
C924        C925   1.403       .  A
C924        H929   1.083   1_565  S
C925        C926   1.408   1_455  A
C926       Br927   1.918       .  S
C931        C932   1.401       .  A
C931        C936   1.397       .  A
C931        H938   1.084       .  S
C932        C933   1.401       .  A
C933        C934   1.388       .  A
C933       Br940   1.922       .  S
C934        C935   1.408       .  A
C934        H939   1.083       .  S
C935        C936   1.412       .  A
C936       Br937   1.917       .  S
C941        C942   1.406       .  A
C941        C946   1.408       .  A
C941        H948   1.083       .  S
C942        C943   1.404       .  A
C943        C944   1.391       .  A
C943       Br950   1.922       .  S
C944        C945   1.404       .  A
C944        H949   1.084       .  S
C945        C946   1.410       .  A
C946       Br947   1.917       .  S
C951        C952   1.408       .  A
C951        C956   1.402       .  A
C951        H958   1.084       .  S
C952        C953   1.407       .  A
C953        C954   1.393       .  A
C953       Br960   1.921       .  S
C954        C955   1.404       .  A
C954        H959   1.080       .  S
C955        C956   1.410       .  A
C956       Br957   1.919       .  S
C961        C962   1.406       .  A
C961        C966   1.404       .  A
C961        H968   1.083       .  S
C962        C963   1.422       .  A
C963        C964   1.397       .  A
C963       Br970   1.923       .  S
C964        C965   1.394       .  A
C964        H969   1.084       .  S
C965        C966   1.410       .  A
C966       Br967   1.920       .  S
C971        C972   1.411       .  A
C971        C976   1.400       .  A
C971        H978   1.083       .  S
C972        C973   1.414       .  A
C973        C974   1.398       .  A
C973       Br980   1.922       .  S
C974        C975   1.406       .  A
C974        H979   1.085       .  S
C975        C976   1.405       .  A
C976       Br977   1.919       .  S
C981        C982   1.405       .  A
C981        C986   1.400       .  A
C981        H988   1.083       .  S
C982        C983   1.424       .  A
C983        C984   1.403       .  A
C983       Br990   1.923       .  S
C984        C985   1.399       .  A
C984        H989   1.084       .  S
C985        C986   1.410       .  A
C986       Br987   1.920       .  S
C991        C992   1.404       .  A
C991        C996   1.400       .  A
C991        H998   1.084       .  S
C992        C993   1.407       .  A
C993        C994   1.404       .  A
C993      Br1000   1.917       .  S
C994        C995   1.405       .  A
C994        H999   1.084       .  S
C995        C996   1.407       .  A
C996       Br997   1.919       .  S
C1001      C1002   1.404   1_455  A
C1001      C1006   1.395       .  A
C1001      H1008   1.082       .  S
C1002      C1003   1.406       .  A
C1003      C1004   1.398       .  A
C1003     Br1010   1.916       .  S
C1004      C1005   1.408   1_655  A
C1004      H1009   1.084       .  S
C1005      C1006   1.410       .  A
C1006     Br1007   1.921       .  S
C1011      C1012   1.408   1_655  A
C1011      C1016   1.404       .  A
C1011      H1018   1.083       .  S
C1012      C1013   1.424   1_554  A
C1013      C1014   1.391       .  A
C1013     Br1020   1.927       .  S
C1014      C1015   1.393   1_556  A
C1014      H1019   1.085       .  S
C1015      C1016   1.405   1_455  A
C1016     Br1017   1.916       .  S
C1021      C1022   1.406       .  A
C1021      C1026   1.407       .  A
C1021      H1028   1.083       .  S
C1022      C1023   1.417       .  A
C1023      C1024   1.400       .  A
C1023     Br1030   1.923       .  S
C1024      C1025   1.402       .  A
C1024      H1029   1.084       .  S
C1025      C1026   1.411       .  A
C1026     Br1027   1.918       .  S
C1031      C1032   1.406       .  A
C1031      C1036   1.397       .  A
C1031      H1038   1.084       .  S
C1032      C1033   1.415       .  A
C1033      C1034   1.403       .  A
C1033     Br1040   1.919       .  S
C1034      C1035   1.403       .  A
C1034      H1039   1.084       .  S
C1035      C1036   1.409       .  A
C1036     Br1037   1.922       .  S
C1041      C1042   1.407   1_556  A
C1041      C1046   1.401       .  A
C1041      H1048   1.083       .  S
C1042      C1043   1.418       .  A
C1043      C1044   1.408       .  A
C1043     Br1050   1.921       .  S
C1044      C1045   1.405   1_554  A
C1044      H1049   1.083       .  S
C1045      C1046   1.409       .  A
C1046     Br1047   1.916       .  S
C1051      C1052   1.408       .  A
C1051      C1056   1.407       .  A
C1051      H1058   1.083       .  S
C1052      C1053   1.409       .  A
C1053      C1054   1.401       .  A
C1053     Br1060   1.917       .  S
C1054      C1055   1.407       .  A
C1054      H1059   1.084       .  S
C1055      C1056   1.413       .  A
C1056     Br1057   1.919   1_556  S
C1061      C1062   1.404       .  A
C1061      C1066   1.400       .  A
C1061      H1068   1.083       .  S
C1062      C1063   1.416       .  A
C1063      C1064   1.391       .  A
C1063     Br1070   1.925       .  S
C1064      C1065   1.400       .  A
C1064      H1069   1.084       .  S
C1065      C1066   1.413       .  A
C1066     Br1067   1.918       .  S
C1071      C1072   1.403       .  A
C1071      C1076   1.401       .  A
C1071      H1078   1.084       .  S
C1072      C1073   1.411       .  A
C1073      C1074   1.398       .  A
C1073     Br1080   1.918       .  S
C1074      C1075   1.401       .  A
C1074      H1079   1.084       .  S
C1075      C1076   1.411       .  A
C1076     Br1077   1.920       .  S
C1081      C1082   1.407       .  A
C1081      C1086   1.402       .  A
C1081      H1088   1.083       .  S
C1082      C1083   1.414   1_554  A
C1083      C1084   1.396       .  A
C1083     Br1090   1.923       .  S
C1084      C1085   1.405   1_556  A
C1084      H1089   1.084       .  S
C1085      C1086   1.413       .  A
C1086     Br1087   1.920       .  S
C1091      C1092   1.404   1_556  A
C1091      C1096   1.395       .  A
C1091      H1098   1.084       .  S
C1092      C1093   1.404       .  A
C1093      C1094   1.395       .  A
C1093     Br1100   1.919       .  S
C1094      C1095   1.403       .  A
C1094      H1099   1.084       .  S
C1095      C1096   1.403   1_554  A
C1096     Br1097   1.921       .  S
C1101      C1102   1.399   1_556  A
C1101      C1106   1.397   1_545  A
C1101      H1108   1.084       .  S
C1102      C1103   1.409       .  A
C1103      C1104   1.396   1_545  A
C1103     Br1110   1.920       .  S
C1104      C1105   1.398   1_554  A
C1104      H1109   1.084       .  S
C1105      C1106   1.409       .  A
C1106     Br1107   1.920       .  S
C1111      C1112   1.404       .  A
C1111      C1116   1.405   1_554  A
C1111      H1118   1.083   1_554  S
C1112      C1113   1.413       .  A
C1113      C1114   1.397       .  A
C1113     Br1120   1.918       .  S
C1114      C1115   1.402       .  A
C1114      H1119   1.083       .  S
C1115      C1116   1.417   1_554  A
C1116     Br1117   1.922       .  S
C1121      C1122   1.405       .  A
C1121      C1126   1.407       .  A
C1121      H1128   1.083       .  S
C1122      C1123   1.412       .  A
C1123      C1124   1.402       .  A
C1123     Br1130   1.922       .  S
C1124      C1125   1.405       .  A
C1124      H1129   1.084       .  S
C1125      C1126   1.409       .  A
C1126     Br1127   1.916       .  S
C1131      C1132   1.395       .  A
C1131      C1136   1.394       .  A
C1131      H1138   1.083       .  S
C1132      C1133   1.410       .  A
C1133      C1134   1.405       .  A
C1133     Br1140   1.919       .  S
C1134      C1135   1.404       .  A
C1134      H1139   1.083       .  S
C1135      C1136   1.421       .  A
C1136     Br1137   1.926       .  S
C1141      C1142   1.401       .  A
C1141      C1146   1.400       .  A
C1141      H1148   1.084       .  S
C1142      C1143   1.409       .  A
C1143      C1144   1.403       .  A
C1143     Br1150   1.918       .  S
C1144      C1145   1.405       .  A
C1144      H1149   1.083       .  S
C1145      C1146   1.418       .  A
C1146     Br1147   1.923       .  S
C1151      C1152   1.405       .  A
C1151      C1156   1.393       .  A
C1151      H1158   1.083       .  S
C1152      C1153   1.413       .  A
C1153      C1154   1.401       .  A
C1153     Br1160   1.921       .  S
C1154      C1155   1.406       .  A
C1154      H1159   1.083       .  S
C1155      C1156   1.411       .  A
C1156     Br1157   1.923       .  S
C1161      C1162   1.390       .  A
C1161      C1166   1.390       .  A
C1161      H1168   1.084       .  S
C1162      C1163   1.414       .  A
C1163      C1164   1.409       .  A
C1163     Br1170   1.915       .  S
C1164      C1165   1.402       .  A
C1164      H1169   1.083       .  S
C1165      C1166   1.423       .  A
C1166     Br1167   1.916       .  S
C1171      C1172   1.407       .  A
C1171      C1176   1.399       .  A
C1171      H1178   1.084       .  S
C1172      C1173   1.410       .  A
C1173      C1174   1.405   1_545  A
C1173     Br1180   1.919   1_545  S
C1174      C1175   1.410   1_565  A
C1174      H1179   1.083       .  S
C1175      C1176   1.412       .  A
C1176     Br1177   1.920       .  S
C1181      C1182   1.405       .  A
C1181      C1186   1.404       .  A
C1181      H1188   1.084       .  S
C1182      C1183   1.411       .  A
C1183      C1184   1.399       .  A
C1183     Br1190   1.921       .  S
C1184      C1185   1.407       .  A
C1184      H1189   1.084       .  S
C1185      C1186   1.414       .  A
C1186     Br1187   1.919       .  S
C1191      C1192   1.407       .  A
C1191      C1196   1.392       .  A
C1191      H1198   1.084       .  S
C1192      C1193   1.409       .  A
C1193      C1194   1.399       .  A
C1193     Br1200   1.920       .  S
C1194      C1195   1.405       .  A
C1194      H1199   1.082       .  S
C1195      C1196   1.405       .  A
C1196     Br1197   1.921       .  S
C1201      C1202   1.407       .  A
C1201      C1206   1.396       .  A
C1201      H1208   1.083       .  S
C1202      C1203   1.417       .  A
C1203      C1204   1.406       .  A
C1203     Br1210   1.920       .  S
C1204      C1205   1.406       .  A
C1204      H1209   1.083       .  S
C1205      C1206   1.410       .  A
C1206     Br1207   1.920       .  S
C1211      C1212   1.410       .  A
C1211      C1216   1.398       .  A
C1211      H1218   1.085       .  S
C1212      C1213   1.407       .  A
C1213      C1214   1.405       .  A
C1213     Br1220   1.917       .  S
C1214      C1215   1.412       .  A
C1214      H1219   1.083       .  S
C1215      C1216   1.408       .  A
C1216     Br1217   1.921       .  S
C1221      C1222   1.409       .  A
C1221      C1226   1.394       .  A
C1221      H1228   1.083       .  S
C1222      C1223   1.408       .  A
C1223      C1224   1.402       .  A
C1223     Br1230   1.919       .  S
C1224      C1225   1.409       .  A
C1224      H1229   1.084       .  S
C1225      C1226   1.405       .  A
C1226     Br1227   1.921       .  S
C1231      C1232   1.407   1_565  A
C1231      C1236   1.399       .  A
C1231      H1238   1.085       .  S
C1232      C1233   1.400       .  A
C1233      C1234   1.401       .  A
C1233     Br1240   1.915       .  S
C1234      C1235   1.412   1_545  A
C1234      H1239   1.083       .  S
C1235      C1236   1.413       .  A
C1236     Br1237   1.923       .  S
C1241      C1242   1.406       .  A
C1241      C1246   1.394       .  A
C1241      H1248   1.084       .  S
C1242      C1243   1.411       .  A
C1243      C1244   1.399   1_455  A
C1243     Br1250   1.920   1_455  S
C1244      C1245   1.405       .  A
C1244      H1249   1.084       .  S
C1245      C1246   1.408   1_655  A
C1246     Br1247   1.921       .  S
C1251      C1252   1.404       .  A
C1251      C1256   1.403       .  A
C1251      H1258   1.083       .  S
C1252      C1253   1.421   1_565  A
C1253      C1254   1.403       .  A
C1253     Br1260   1.923       .  S
C1254      C1255   1.404       .  A
C1254      H1259   1.083       .  S
C1255      C1256   1.420   1_545  A
C1256     Br1257   1.923       .  S
C1261      C1262   1.407       .  A
C1261      C1266   1.396       .  A
C1261      H1268   1.083       .  S
C1262      C1263   1.416       .  A
C1263      C1264   1.399       .  A
C1263     Br1270   1.921       .  S
C1264      C1265   1.402       .  A
C1264      H1269   1.084       .  S
C1265      C1266   1.406       .  A
C1266     Br1267   1.921       .  S
C1271      C1272   1.401       .  A
C1271      C1276   1.402       .  A
C1271      H1278   1.083       .  S
C1272      C1273   1.412       .  A
C1273      C1274   1.397       .  A
C1273     Br1280   1.920       .  S
C1274      C1275   1.398       .  A
C1274      H1279   1.084       .  S
C1275      C1276   1.408       .  A
C1276     Br1277   1.915       .  S
C1281      C1282   1.401       .  A
C1281      C1286   1.396       .  A
C1281      H1288   1.084       .  S
C1282      C1283   1.403       .  A
C1283      C1284   1.398       .  A
C1283     Br1290   1.918       .  S
C1284      C1285   1.404       .  A
C1284      H1289   1.084       .  S
C1285      C1286   1.408       .  A
C1286     Br1287   1.920       .  S
C1291      C1292   1.401       .  A
C1291      C1296   1.402       .  A
C1291      H1298   1.083       .  S
C1292      C1293   1.420       .  A
C1293      C1294   1.394       .  A
C1293     Br1300   1.925       .  S
C1294      C1295   1.395       .  A
C1294      H1299   1.084       .  S
C1295      C1296   1.414       .  A
C1296     Br1297   1.917       .  S
C1301      C1302   1.407       .  A
C1301      C1306   1.412   1_655  A
C1301      H1308   1.083       .  S
C1302      C1303   1.410       .  A
C1303      C1304   1.402   1_655  A
C1303     Br1310   1.913       .  S
C1304      C1305   1.403       .  A
C1304      H1309   1.084       .  S
C1305      C1306   1.412       .  A
C1306     Br1307   1.916       .  S
C1311      C1312   1.408       .  A
C1311      C1316   1.410       .  A
C1311      H1318   1.083       .  S
C1312      C1313   1.423       .  A
C1313      C1314   1.398       .  A
C1313     Br1320   1.925       .  S
C1314      C1315   1.396       .  A
C1314      H1319   1.084       .  S
C1315      C1316   1.409       .  A
C1316     Br1317   1.916       .  S
C1321      C1322   1.397       .  A
C1321      C1326   1.396       .  A
C1321      H1328   1.084       .  S
C1322      C1323   1.410       .  A
C1323      C1324   1.398       .  A
C1323     Br1330   1.919       .  S
C1324      C1325   1.401       .  A
C1324      H1329   1.083       .  S
C1325      C1326   1.415       .  A
C1326     Br1327   1.921       .  S
C1331      C1332   1.402       .  A
C1331      C1336   1.400       .  A
C1331      H1338   1.083       .  S
C1332      C1333   1.417       .  A
C1333      C1334   1.398       .  A
C1333     Br1340   1.919       .  S
C1334      C1335   1.401       .  A
C1334      H1339   1.083       .  S
C1335      C1336   1.416       .  A
C1336     Br1337   1.920       .  S
C1341      C1342   1.405       .  A
C1341      C1346   1.402       .  A
C1341      H1348   1.083       .  S
C1342      C1343   1.417       .  A
C1343      C1344   1.402       .  A
C1343     Br1350   1.922       .  S
C1344      C1345   1.404       .  A
C1344      H1349   1.083       .  S
C1345      C1346   1.416       .  A
C1346     Br1347   1.922       .  S
C1351      C1352   1.401       .  A
C1351      C1356   1.408       .  A
C1351      H1358   1.083       .  S
C1352      C1353   1.424       .  A
C1353      C1354   1.390       .  A
C1353     Br1360   1.930       .  S
C1354      C1355   1.394       .  A
C1354      H1359   1.084       .  S
C1355      C1356   1.414       .  A
C1356     Br1357   1.913       .  S
