geometry optimzed in LAMMPS
_audit_creation_date              2020-11-30 
_audit_creation_method            'lammps2cif' 
_symmetry_space_group_name_H-M    'P1' 
_symmetry_Int_Tables_number       1 
_symmetry_cell_setting            triclinic 
loop_ 
_symmetry_equiv_pos_as_xyz 
  x,y,z 
_cell_length_a                    41.45323728 
_cell_length_b                    41.446860574417634 
_cell_length_c                    41.45367386634871 
_cell_angle_alpha                 90.00137989962568 
_cell_angle_beta                  90.00647031095752 
_cell_angle_gamma                 90.00083654027195 
loop_ 
_atom_site_label 
_atom_site_type_symbol 
_atom_site_fract_x 
_atom_site_fract_y 
_atom_site_fract_z 
_atom_site_charge 
O1          O  0.47305808  0.10252625  0.54076625    -0.73000
O2          O  0.53640835  0.10179754  0.46342275    -0.74000
O3          O  0.46597161  0.10473483  0.47045260    -0.62600
O4          O  0.54333863  0.09950744  0.53360874    -0.71100
O5          O  0.54151884  0.04628573  0.52889769    -0.70600
O6          O  0.46379351  0.05140633  0.47282578    -0.61900
O7          O  0.53085977  0.04867017  0.46195760    -0.74400
O8          O  0.47446810  0.04910612  0.53992101    -0.73200
Cu9        Cu  0.50477559  0.10430267  0.50212749     1.04600
Cu10       Cu  0.50254848  0.04735367  0.50085251     1.04300
C11         C  0.46442868  0.07526956  0.55268627     0.93100
C12         C  0.54313677  0.07447460  0.45047170     0.92300
C13         C  0.45254125  0.07805133  0.46226653     0.84400
C14         C  0.55479697  0.07153683  0.54042170     0.90700
O15         O  0.19661527  0.44082424  0.47090719    -0.73000
O16         O  0.19484012  0.36169246  0.53226966    -0.74000
O17         O  0.19539097  0.37060333  0.46244030    -0.62600
O18         O  0.19691398  0.43163574  0.54058293    -0.71100
O19         O  0.14351024  0.42901461  0.54163588    -0.70600
O20         O  0.14216043  0.37550942  0.46140056    -0.61900
O21         O  0.14155824  0.36232081  0.52827114    -0.74400
O22         O  0.14336252  0.44234794  0.47498054    -0.73200
Cu23       Cu  0.19805505  0.40113043  0.50152319     1.04600
Cu24       Cu  0.14106248  0.40233472  0.50155336     1.04300
C25         C  0.16955593  0.45435536  0.46416719     0.93100
C26         C  0.16725142  0.34942981  0.53927703     0.92300
C27         C  0.16813337  0.36405246  0.44939757     0.84400
C28         C  0.16997186  0.43924342  0.55366482     0.90700
O29         O  0.46717075  0.70535105  0.53929428    -0.73000
O30         O  0.53067053  0.70492905  0.46188782    -0.74000
O31         O  0.53736134  0.70396417  0.53228755    -0.62600
O32         O  0.46037972  0.70563535  0.46906219    -0.71100
O33         O  0.46087805  0.75896562  0.47261295    -0.70600
O34         O  0.53891080  0.75730801  0.52911841    -0.61900
O35         O  0.52803401  0.75830083  0.46186717    -0.74400
O36         O  0.47164367  0.75860163  0.53987401    -0.73200
Cu37       Cu  0.49885962  0.70284303  0.50063088     1.04600
Cu38       Cu  0.49988211  0.75984793  0.50091241     1.04300
C39         C  0.46006726  0.73273955  0.55191853     0.93100
C40         C  0.53864183  0.73219944  0.44946816     0.92300
C41         C  0.55051748  0.73090295  0.53995771     0.84400
C42         C  0.44839001  0.73311211  0.46140661     0.90700
O43         O  0.85509945  0.42712132  0.54243820    -0.73000
O44         O  0.85604967  0.37463705  0.46183249    -0.74000
O45         O  0.85497182  0.44122025  0.47576242    -0.62600
O46         O  0.85570549  0.36051882  0.52830164    -0.71100
O47         O  0.80234446  0.36098045  0.53182137    -0.70600
O48         O  0.80168902  0.43986916  0.47156209    -0.61900
O49         O  0.80277983  0.37023504  0.46207318    -0.74400
O50         O  0.80178088  0.43070886  0.54148237    -0.73200
Cu51       Cu  0.85704942  0.40091755  0.50210119     1.04600
Cu52       Cu  0.80003356  0.40043324  0.50174269     1.04300
C53         C  0.82891608  0.43769432  0.55469214     0.93100
C54         C  0.83018942  0.36361314  0.44928212     0.92300
C55         C  0.82877526  0.45313432  0.46475047     0.84400
C56         C  0.82956334  0.34804462  0.53876397     0.90700
O57         O  0.53348911  0.43146339  0.19827607    -0.73000
O58         O  0.45688445  0.36770064  0.19654501    -0.74000
O59         O  0.52741824  0.36106263  0.19609015    -0.62600
O60         O  0.46351406  0.43798542  0.19863140    -0.71100
O61         O  0.46702396  0.44009352  0.14534366    -0.70600
O62         O  0.52326386  0.36172005  0.14283334    -0.61900
O63         O  0.45598800  0.37295037  0.14335456    -0.74400
O64         O  0.53382899  0.42900571  0.14488690    -0.73200
Cu65       Cu  0.49531123  0.39940937  0.19952659     1.04600
Cu66       Cu  0.49500668  0.40092664  0.14255591     1.04300
C67         C  0.54572137  0.43986879  0.17112547     0.93100
C68         C  0.44404340  0.36115742  0.16914200     0.92300
C69         C  0.53490422  0.34919301  0.16846095     0.84400
C70         C  0.45624786  0.45162006  0.17179063     0.90700
O71         O  0.54185065  0.43238405  0.80133076    -0.73000
O72         O  0.46385053  0.37022943  0.80212540    -0.74000
O73         O  0.47153585  0.44032586  0.80268190    -0.62600
O74         O  0.53401633  0.36210605  0.80105624    -0.71100
O75         O  0.53097084  0.36116114  0.85439395    -0.70600
O76         O  0.47614756  0.44043221  0.85590577    -0.61900
O77         O  0.46398177  0.37345857  0.85547513    -0.74400
O78         O  0.54320560  0.42818268  0.85458963    -0.73200
Cu79       Cu  0.50282236  0.40129257  0.79965871     1.04600
Cu80       Cu  0.50365244  0.40081083  0.85663533     1.04300
C81         C  0.55499032  0.43942922  0.82845843     0.93100
C82         C  0.45136773  0.36281877  0.82946704     0.92300
C83         C  0.46445890  0.45271125  0.83019066     0.84400
C84         C  0.54149004  0.34901659  0.82812843     0.90700
O85         O  0.96116330  0.54834666  0.97429180    -0.73000
O86         O  0.03916304  0.55066348  0.02948282    -0.74000
O87         O  0.97247802  0.55067543  0.04103531    -0.62600
O88         O  0.02780995  0.54927564  0.96253050    -0.71100
O89         O  0.03090291  0.60265175  0.96208433    -0.70600
O90         O  0.96810560  0.60392939  0.03934298    -0.61900
O91         O  0.03838231  0.60400943  0.03245885    -0.74400
O92         O  0.96074356  0.60153826  0.96909621    -0.73200
Cu93       Cu  0.00018199  0.54823817  0.00188727     1.04600
Cu94       Cu  0.99952351  0.60522884  0.00069132     1.04300
C95         C  0.94868779  0.57376934  0.96235687     0.93100
C96         C  0.05105391  0.57684248  0.04037929     0.92300
C97         C  0.96110967  0.57686687  0.05259066     0.84400
C98         C  0.03842118  0.57524982  0.94983174     0.90700
O99         O  0.64628129  0.92775756  0.04071809    -0.73000
O100        O  0.64492254  0.87102186  0.96329915    -0.74000
O101        O  0.64542596  0.86063214  0.03056440    -0.62600
O102        O  0.64620150  0.93800174  0.97330535    -0.71100
O103        O  0.69946615  0.93652947  0.96928470    -0.70600
O104        O  0.69876176  0.86047022  0.03396344    -0.61900
O105        O  0.69818238  0.86645346  0.96360895    -0.74400
O106        O  0.69963042  0.93079200  0.04003995    -0.73200
Cu107      Cu  0.64417942  0.89940735  0.00203045     1.04600
Cu108      Cu  0.70117264  0.89856925  0.00175430     1.04300
C109        C  0.67245786  0.93856872  0.05273405     0.93100
C110        C  0.67070704  0.85947893  0.95111855     0.92300
C111        C  0.67136674  0.84828118  0.04166495     0.84400
C112        C  0.67232051  0.94915154  0.96138350     0.90700
O113        O  0.02953085  0.20252193  0.95787375    -0.73000
O114        O  0.97017228  0.19991897  0.03772877    -0.74000
O115        O  0.95969552  0.20089239  0.96780161    -0.62600
O116        O  0.03979183  0.20158873  0.02707780    -0.71100
O117        O  0.03897712  0.25497863  0.02408473    -0.70600
O118        O  0.95817436  0.25412996  0.97240796    -0.61900
O119        O  0.97291754  0.25330749  0.03879542    -0.74400
O120        O  0.02464494  0.25577981  0.95796868    -0.73200
Cu121      Cu  0.99977664  0.19906911  0.99756851     1.04600
Cu122      Cu  0.99858269  0.25609556  0.99833549     1.04300
C123        C  0.03606348  0.23008897  0.94542653     0.93100
C124        C  0.96314230  0.22689640  0.05119945     0.92300
C125        C  0.94619710  0.22801502  0.96135869     0.84400
C126        C  0.05223121  0.22905890  0.03404709     0.90700
O127        O  0.35390650  0.87638862  0.96097419    -0.73000
O128        O  0.35521054  0.93288159  0.03871947    -0.74000
O129        O  0.35404424  0.86599235  0.02847023    -0.62600
O130        O  0.35431441  0.94351650  0.97137255    -0.71100
O131        O  0.30096982  0.94349531  0.96832228    -0.70600
O132        O  0.30078653  0.86708563  0.03263732    -0.61900
O133        O  0.30194552  0.93710071  0.03899891    -0.74400
O134        O  0.30059975  0.87303711  0.96183900    -0.73200
Cu135      Cu  0.35587251  0.90467552  0.99982827     1.04600
Cu136      Cu  0.29890032  0.90520234  0.00041830     1.04300
C137        C  0.32778568  0.86535716  0.94903752     0.93100
C138        C  0.32950610  0.94406815  0.05137786     0.92300
C139        C  0.32802356  0.85461142  0.04041540     0.84400
C140        C  0.32827126  0.95570107  0.96031297     0.90700
O141        O  0.03872614  0.92855137  0.69791485    -0.73000
O142        O  0.96080905  0.86677846  0.69749586    -0.74000
O143        O  0.03074198  0.85860691  0.69916867    -0.62600
O144        O  0.96894978  0.93677206  0.69590930    -0.71100
O145        O  0.97382155  0.93615799  0.64267350    -0.70600
O146        O  0.02766384  0.85673922  0.64583358    -0.61900
O147        O  0.96090445  0.86949399  0.64409170    -0.74400
O148        O  0.04042938  0.92356353  0.64471722    -0.73200
Cu149      Cu  0.99975043  0.89770622  0.69976476     1.04600
Cu150      Cu  0.00076048  0.89642316  0.64276365     1.04300
C151        C  0.05195907  0.93526280  0.67077766     0.93100
C152        C  0.94835513  0.85913048  0.67021838     0.92300
C153        C  0.03827079  0.84517533  0.67231307     0.84400
C154        C  0.96242025  0.94898347  0.66820744     0.90700
O155        O  0.03694406  0.93628459  0.30068335    -0.73000
O156        O  0.96005598  0.87262421  0.30179607    -0.74000
O157        O  0.96666154  0.94298899  0.29976664    -0.62600
O158        O  0.03068524  0.86602158  0.30300504    -0.78300
O159        O  0.02641612  0.86705331  0.35625236    -0.70600
O160        O  0.96988155  0.94471323  0.35306909    -0.61900
O161        O  0.95905621  0.87762227  0.35498695    -0.74400
O162        O  0.03698956  0.93410751  0.35408609    -0.73200
Cu163      Cu  0.99859421  0.90436630  0.29915427     1.04600
Cu164      Cu  0.99804003  0.90590418  0.35611976     1.04300
C165        C  0.04925884  0.94456314  0.32784942     0.93100
C166        C  0.94714840  0.86587915  0.32912669     0.92300
C167        C  0.95899061  0.95625390  0.32669388     0.84400
C168        C  0.03818487  0.85444341  0.33076173     0.90700
N169        N  0.70084329  0.74143581  0.68606340    -0.27400
N170        N  0.68268742  0.71660757  0.67709026    -0.35300
C171        C  0.69210530  0.69061163  0.69435201     0.00900
C172        C  0.71713407  0.69948786  0.71486356     0.07000
C173        C  0.72207668  0.73180739  0.70877131    -0.06100
H174        H  0.68228152  0.66660107  0.69142122     0.07600
H175        H  0.74045392  0.74705025  0.71932615     0.08800
Cu176      Cu  0.64729302  0.71781976  0.63959107     0.44200
Cu177      Cu  0.69915858  0.78747448  0.66637400     0.42000
Cu178      Cu  0.65594785  0.79105481  0.59414764     0.43900
N179        N  0.61776437  0.72885618  0.59884745    -0.34800
N180        N  0.62275589  0.75592947  0.58272852    -0.29000
C181        C  0.60052144  0.75922996  0.55955619    -0.05100
C182        C  0.58001749  0.73308741  0.56027222     0.07100
C183        C  0.59169192  0.71391931  0.58553158     0.00900
H184        H  0.59866581  0.78006289  0.54395773     0.08500
H185        H  0.58112035  0.69181425  0.59446368     0.07600
N186        N  0.68079154  0.83029677  0.61178465    -0.36200
N187        N  0.69627045  0.82964856  0.63957618    -0.28400
C188        C  0.70645313  0.85970120  0.64667033    -0.03700
C189        C  0.69666762  0.88014799  0.62206660     0.05000
C190        C  0.68057543  0.86058491  0.60034346     0.03100
H191        H  0.71849489  0.86642118  0.66883975     0.08200
H192        H  0.66788028  0.86807756  0.57879098     0.07000
N193        N  0.70796343  0.05500850  0.68365776    -0.27400
N194        N  0.68888185  0.07939657  0.67544005    -0.35300
C195        C  0.69689428  0.10507857  0.69376148     0.00900
C196        C  0.72202695  0.09658395  0.71423005     0.07000
C197        C  0.72855243  0.06474819  0.70694035    -0.06100
H198        H  0.68609893  0.12874267  0.69149913     0.07600
H199        H  0.74743313  0.04993090  0.71720212     0.08800
Cu200      Cu  0.65381633  0.07863724  0.63792062     0.44200
Cu201      Cu  0.70725477  0.00927259  0.66288914     0.42000
Cu202      Cu  0.65769860  0.00490406  0.59384777     0.43900
N203        N  0.62276090  0.06881265  0.59830866    -0.34800
N204        N  0.62525747  0.04100935  0.58290028    -0.29000
C205        C  0.60221719  0.03889917  0.56034075    -0.05100
C206        C  0.58400024  0.06677459  0.56070859     0.07100
C207        C  0.59776484  0.08552182  0.58513692     0.00900
H208        H  0.59853323  0.01804188  0.54509883     0.08500
H209        H  0.58944466  0.10878289  0.59348695     0.07600
N210        N  0.68366812  0.96589227  0.61047078    -0.36200
N211        N  0.70126913  0.96671517  0.63699385    -0.28400
C212        C  0.71044210  0.93640065  0.64442319    -0.03700
C213        C  0.69785836  0.91567434  0.62135327     0.05000
C214        C  0.68128077  0.93531541  0.60011664     0.03100
H215        H  0.72350056  0.92975660  0.66603499     0.08200
H216        H  0.66635235  0.92773170  0.58008257     0.07000
N217        N  0.84250105  0.58713524  0.70070293    -0.27400
N218        N  0.81706629  0.57643406  0.68446145    -0.35300
C219        C  0.79100690  0.59313906  0.69457794     0.00900
C220        C  0.80049996  0.61505073  0.71812505     0.07000
C221        C  0.83323826  0.61038892  0.72149582    -0.06100
H222        H  0.76663710  0.58899587  0.68618520     0.07600
H223        H  0.84912006  0.62251094  0.73829855     0.08800
Cu224      Cu  0.81792163  0.53765999  0.65064575     0.44200
Cu225      Cu  0.88905161  0.56958589  0.69611900     0.42000
Cu226      Cu  0.89281686  0.49441462  0.65685404     0.43900
N227        N  0.82845646  0.49626496  0.62206072    -0.34800
N228        N  0.85594337  0.48061382  0.62625222    -0.29000
C229        C  0.85861509  0.45714491  0.60418501    -0.05100
C230        C  0.83165744  0.45733122  0.58463608     0.07100
C231        C  0.81270376  0.48248383  0.59675409     0.00900
H232        H  0.87974908  0.44210736  0.60137590     0.08500
H233        H  0.79030576  0.49128819  0.58671475     0.07600
N234        N  0.93308390  0.51632790  0.67648988    -0.36200
N235        N  0.93214143  0.54515136  0.68998336    -0.28400
C236        C  0.96246237  0.55475800  0.69664788    -0.03700
C237        C  0.98341951  0.53067686  0.68679972     0.05000
C238        C  0.96391979  0.50666402  0.67423381     0.03100
H239        H  0.96878893  0.57793109  0.70688078     0.08200
H240        H  0.97160765  0.48447474  0.66282771     0.07000
N241        N  0.16034518  0.58896671  0.69872279    -0.27400
N242        N  0.18573464  0.57764524  0.68280956    -0.35300
C243        C  0.21216487  0.59343462  0.69346688     0.00900
C244        C  0.20303470  0.61547319  0.71702715     0.07000
C245        C  0.17006587  0.61181745  0.71979140    -0.06100
H246        H  0.23651782  0.58854281  0.68544012     0.07600
H247        H  0.15434912  0.62422979  0.73652570     0.08800
Cu248      Cu  0.18448320  0.53910025  0.64885819     0.44200
Cu249      Cu  0.11318287  0.57223617  0.69398646     0.42000
Cu250      Cu  0.10967231  0.49666413  0.65674146     0.43900
N251        N  0.17289541  0.49791587  0.62056274    -0.34800
N252        N  0.14530886  0.48267061  0.62539377    -0.29000
C253        C  0.14158964  0.45934548  0.60339747    -0.05100
C254        C  0.16802360  0.45914725  0.58330194     0.07100
C255        C  0.18777977  0.48389700  0.59491483     0.00900
H256        H  0.12016222  0.44462955  0.60114856     0.08500
H257        H  0.21012085  0.49224330  0.58437318     0.07600
N258        N  0.06942632  0.51814649  0.67595787    -0.36200
N259        N  0.06993723  0.54724459  0.68883669    -0.28400
C260        C  0.03941649  0.55614710  0.69571867    -0.03700
C261        C  0.01894315  0.53128284  0.68654347     0.05000
C262        C  0.03887617  0.50763240  0.67416944     0.03100
H263        H  0.03259327  0.57928617  0.70569996     0.08200
H264        H  0.03167804  0.48499434  0.66333323     0.07000
N265        N  0.69830853  0.59170084  0.84325046    -0.27400
N266        N  0.68278560  0.58009627  0.81772577    -0.35300
C267        C  0.69350766  0.59597799  0.79146086     0.00900
C268        C  0.71658732  0.61829919  0.80090261     0.07000
C269        C  0.71914850  0.61480029  0.83380655    -0.06100
H270        H  0.68604669  0.59078202  0.76698995     0.07600
H271        H  0.73574421  0.62726507  0.84964079     0.08800
Cu272      Cu  0.64938262  0.54108499  0.81772684     0.44200
Cu273      Cu  0.69420100  0.57521082  0.89013789     0.42000
Cu274      Cu  0.65363635  0.50112202  0.89276830     0.43900
N275        N  0.62085415  0.49969074  0.82783152    -0.34800
N276        N  0.62431344  0.48527622  0.85602938    -0.29000
C277        C  0.60273969  0.46144151  0.85892359    -0.05100
C278        C  0.58420759  0.46007354  0.83132266     0.07100
C279        C  0.59646791  0.48470038  0.81172847     0.00900
H280        H  0.59957613  0.44718851  0.88054370     0.08500
H281        H  0.58713642  0.49229271  0.78859193     0.07600
N282        N  0.67395280  0.52177643  0.93303868    -0.36200
N283        N  0.68854573  0.55005095  0.93274834    -0.28400
C284        C  0.69558989  0.55864004  0.96329695    -0.03700
C285        C  0.68452235  0.53450480  0.98359435     0.05000
C286        C  0.67110142  0.51152975  0.96354562     0.03100
H287        H  0.70628111  0.58142474  0.97025686     0.08200
H288        H  0.65850175  0.48978815  0.97063080     0.07000
N289        N  0.69608283  0.58661538  0.16176191    -0.27400
N290        N  0.67897952  0.57634655  0.18685095    -0.35300
C291        C  0.69012984  0.59170941  0.21336941     0.00900
C292        C  0.71525870  0.61213533  0.20449052     0.07000
C293        C  0.71829005  0.60819652  0.17168220    -0.06100
H294        H  0.68099606  0.58797372  0.23753566     0.07600
H295        H  0.73556301  0.61998768  0.15606916     0.08800
Cu296      Cu  0.64206427  0.54023601  0.18507314     0.44200
Cu297      Cu  0.69126309  0.57156656  0.11435449     0.42000
Cu298      Cu  0.64229388  0.50417298  0.10700075     0.43900
N299        N  0.61099542  0.50099168  0.17272795    -0.34800
N300        N  0.61300619  0.48840230  0.14351597    -0.29000
C301        C  0.59121117  0.46491621  0.13999421    -0.05100
C302        C  0.57397840  0.46173583  0.16819916     0.07100
C303        C  0.58715772  0.48506528  0.18881772     0.00900
H304        H  0.58749629  0.45166785  0.11782272     0.08500
H305        H  0.57926060  0.49072361  0.21301521     0.07600
N306        N  0.66638982  0.52311978  0.06824629    -0.36200
N307        N  0.68434374  0.54928437  0.07024495    -0.28400
C308        C  0.69469177  0.55724646  0.04047188    -0.03700
C309        C  0.68250398  0.53472251  0.01895518     0.05000
C310        C  0.66476289  0.51347113  0.03746366     0.03100
H311        H  0.70922029  0.57820206  0.03485839     0.08200
H312        H  0.65053943  0.49323416  0.02910073     0.07000
N313        N  0.84077279  0.60200302  0.31766122    -0.27400
N314        N  0.81586431  0.58407586  0.32687748    -0.35300
C315        C  0.79006001  0.59303984  0.30912889     0.00900
C316        C  0.79915379  0.61757597  0.28812896     0.07000
C317        C  0.83135944  0.62271628  0.29441415    -0.06100
H318        H  0.76603628  0.58323977  0.31202163     0.07600
H319        H  0.84675446  0.64069500  0.28341054     0.08800
Cu320      Cu  0.81652268  0.54946496  0.36504885     0.44200
Cu321      Cu  0.88695628  0.60024671  0.33674220     0.42000
Cu322      Cu  0.89130367  0.55526291  0.40752607     0.43900
N323        N  0.82738577  0.52017266  0.40590338    -0.34800
N324        N  0.85519272  0.52412682  0.42099787    -0.29000
C325        C  0.85834295  0.50205498  0.44433214    -0.05100
C326        C  0.83133666  0.48271115  0.44470343     0.07100
C327        C  0.81181709  0.49492937  0.42000530     0.00900
H328        H  0.87970767  0.49930615  0.45905333     0.08500
H329        H  0.78907751  0.48511554  0.41183769     0.07600
N330        N  0.93081302  0.57886011  0.38906710    -0.36200
N331        N  0.92984242  0.59532481  0.36187233    -0.28400
C332        C  0.95999132  0.60475471  0.35417135    -0.03700
C333        C  0.98078770  0.59340602  0.37778640     0.05000
C334        C  0.96137251  0.57721044  0.39953059     0.03100
H335        H  0.96643460  0.61751355  0.33232784     0.08200
H336        H  0.96902337  0.56368711  0.42051055     0.07000
N337        N  0.15688828  0.60609014  0.31886334    -0.27400
N338        N  0.18168531  0.58819392  0.32846367    -0.35300
C339        C  0.20752257  0.59635673  0.31035520     0.00900
C340        C  0.19865299  0.62021042  0.28849265     0.07000
C341        C  0.16646232  0.62591854  0.29486941    -0.06100
H342        H  0.23150662  0.58661141  0.31370083     0.07600
H343        H  0.15131907  0.64396812  0.28362718     0.08800
Cu344      Cu  0.18096525  0.55414144  0.36721735     0.44200
Cu345      Cu  0.11061086  0.60502141  0.33843054     0.42000
Cu346      Cu  0.10607413  0.55744241  0.40858983     0.43900
N347        N  0.17047392  0.52337845  0.40717557    -0.34800
N348        N  0.14236785  0.52628323  0.42191846    -0.29000
C349        C  0.13932616  0.50334023  0.44444398    -0.05100
C350        C  0.16674470  0.48445010  0.44466574     0.07100
C351        C  0.18636136  0.49796984  0.42069841     0.00900
H352        H  0.11780509  0.49972353  0.45874145     0.08500
H353        H  0.20943944  0.48894378  0.41259155     0.07600
N354        N  0.06653851  0.58086848  0.38982083    -0.36200
N355        N  0.06746716  0.59813903  0.36309456    -0.28400
C356        C  0.03710788  0.60673049  0.35512142    -0.03700
C357        C  0.01629750  0.59404121  0.37805842     0.05000
C358        C  0.03587655  0.57793979  0.39968176     0.03100
H359        H  0.03057359  0.61983003  0.33350454     0.08200
H360        H  0.02832000  0.56351716  0.42008867     0.07000
N361        N  0.68722188  0.74248486  0.30089340    -0.27400
N362        N  0.67609790  0.71749373  0.31756386    -0.35300
C363        C  0.69234596  0.69099104  0.30781171     0.00900
C364        C  0.71451732  0.69975446  0.28421300     0.07000
C365        C  0.71043531  0.73251612  0.28037652    -0.06100
H366        H  0.68778945  0.66682319  0.31656951     0.07600
H367        H  0.72278691  0.74790765  0.26329111     0.08800
Cu368      Cu  0.63770590  0.71946426  0.35193842     0.44200
Cu369      Cu  0.66997640  0.78933476  0.30391529     0.42000
Cu370      Cu  0.59663716  0.79523738  0.34661980     0.43900
N371        N  0.59758542  0.73118494  0.38203988    -0.34800
N372        N  0.58298118  0.75933380  0.37853723    -0.29000
C373        C  0.56000362  0.76259525  0.40105928    -0.05100
C374        C  0.55926951  0.73526582  0.42012154     0.07100
C375        C  0.58350662  0.71554494  0.40728971     0.00900
H376        H  0.54547811  0.78405962  0.40407996     0.08500
H377        H  0.59122684  0.69241023  0.41652388     0.07600
N378        N  0.61781175  0.83442620  0.32405353    -0.36200
N379        N  0.64589278  0.83281070  0.30913298    -0.28400
C380        C  0.65563188  0.86291071  0.30155113    -0.03700
C381        C  0.63249225  0.88443756  0.31243817     0.05000
C382        C  0.60881183  0.86544453  0.32636140     0.03100
H383        H  0.67861903  0.86875348  0.29063887     0.08200
H384        H  0.58761373  0.87364238  0.33920893     0.07000
N385        N  0.69179696  0.06197828  0.30128298    -0.27400
N386        N  0.68041783  0.08717122  0.31755956    -0.35300
C387        C  0.69563774  0.11386497  0.30668319     0.00900
C388        C  0.71734662  0.10523373  0.28263236     0.07000
C389        C  0.71408376  0.07219263  0.27979217    -0.06100
H390        H  0.69052463  0.13811363  0.31489760     0.07600
H391        H  0.72639155  0.05674856  0.26272427     0.08800
Cu392      Cu  0.64275432  0.08602979  0.35286068     0.44200
Cu393      Cu  0.67612441  0.01420645  0.30594700     0.42000
Cu394      Cu  0.60541246  0.00948722  0.35218571     0.43900
N395        N  0.60330162  0.07483404  0.38407685    -0.34800
N396        N  0.59022198  0.04584077  0.38221609    -0.29000
C397        C  0.56712412  0.04264742  0.40453270    -0.05100
C398        C  0.56467650  0.07093065  0.42189053     0.07100
C399        C  0.58806115  0.09117435  0.40820033     0.00900
H400        H  0.55361545  0.02067624  0.40849149     0.08500
H401        H  0.59426028  0.11528055  0.41598208     0.07600
N402        N  0.62418838  0.97006271  0.32880875    -0.36200
N403        N  0.65143643  0.97072398  0.31237412    -0.28400
C404        C  0.65852237  0.94036944  0.30285001    -0.03700
C405        C  0.63433088  0.91994931  0.31393468     0.05000
C406        C  0.61304411  0.93974181  0.33016749     0.03100
H407        H  0.67999273  0.93357106  0.28964122     0.08200
H408        H  0.59166237  0.93252291  0.34329430     0.07000
N409        N  0.84147518  0.19931257  0.68474661    -0.27400
N410        N  0.81676095  0.21788505  0.67647239    -0.35300
C411        C  0.79141727  0.20960280  0.69521845     0.00900
C412        C  0.80071812  0.18486041  0.71595224     0.07000
C413        C  0.83251457  0.17897349  0.70840028    -0.06100
H414        H  0.76734442  0.21936036  0.69258891     0.07600
H415        H  0.84758829  0.15998372  0.71807308     0.08800
Cu416      Cu  0.81739189  0.25144211  0.63749257     0.44200
Cu417      Cu  0.88616735  0.19848653  0.66285285     0.42000
Cu418      Cu  0.89055216  0.24215242  0.59126281     0.43900
N419        N  0.82829652  0.28007194  0.59627824    -0.34800
N420        N  0.85532133  0.27526285  0.58001201    -0.29000
C421        C  0.85845029  0.29774276  0.55702338    -0.05100
C422        C  0.83216691  0.31805765  0.55809825     0.07100
C423        C  0.81318283  0.30610574  0.58325178     0.00900
H424        H  0.87927380  0.29998038  0.54146640     0.08500
H425        H  0.79119516  0.31663137  0.59250553     0.07600
N426        N  0.92951284  0.21724473  0.60931245    -0.36200
N427        N  0.92844890  0.20130113  0.63680781    -0.28400
C428        C  0.95851131  0.19195159  0.64485774    -0.03700
C429        C  0.97940810  0.20286396  0.62118469     0.05000
C430        C  0.96011398  0.21862525  0.59899170     0.03100
H431        H  0.96488726  0.18017385  0.66726949     0.08200
H432        H  0.96794227  0.23218723  0.57810257     0.07000
N433        N  0.15493603  0.19506736  0.68304664    -0.27400
N434        N  0.17899998  0.21423323  0.67404617    -0.35300
C435        C  0.20492274  0.20703690  0.69242623     0.00900
C436        C  0.19692991  0.18242526  0.71377866     0.07000
C437        C  0.16514441  0.17526655  0.70682769    -0.06100
H438        H  0.22843265  0.21803781  0.68964817     0.07600
H439        H  0.15066336  0.15647101  0.71771128     0.08800
Cu440      Cu  0.17740535  0.24882740  0.63575074     0.44200
Cu441      Cu  0.10875975  0.19487140  0.66316929     0.42000
Cu442      Cu  0.10266087  0.24657390  0.59524009     0.43900
N443        N  0.16674344  0.28067999  0.59665159    -0.34800
N444        N  0.13823828  0.27871743  0.58255506    -0.29000
C445        C  0.13529313  0.30196221  0.56029434    -0.05100
C446        C  0.16334454  0.31990066  0.55943912     0.07100
C447        C  0.18307869  0.30564896  0.58288030     0.00900
H448        H  0.11372782  0.30603688  0.54618125     0.08500
H449        H  0.20677499  0.31367243  0.59022104     0.07600
N450        N  0.06457458  0.21973869  0.61210938    -0.36200
N451        N  0.06579114  0.20126389  0.63801969    -0.28400
C452        C  0.03569964  0.19086484  0.64481357    -0.03700
C453        C  0.01486959  0.20351127  0.62184610     0.05000
C454        C  0.03411199  0.22149328  0.60151804     0.03100
H455        H  0.02929229  0.17650121  0.66565539     0.08200
H456        H  0.02634477  0.23653499  0.58164358     0.07000
N457        N  0.31388666  0.74395854  0.70327271    -0.27400
N458        N  0.32409747  0.71923954  0.68560210    -0.35300
C459        C  0.30729756  0.69283058  0.69465546     0.00900
C460        C  0.28579279  0.70121144  0.71898037     0.07000
C461        C  0.29086274  0.73374848  0.72392843    -0.06100
H462        H  0.31125869  0.66885743  0.68510656     0.07600
H463        H  0.27927516  0.74878819  0.74184171     0.08800
Cu464      Cu  0.36220598  0.72078490  0.65089543     0.44200
Cu465      Cu  0.33153177  0.79096985  0.70083453     0.42000
Cu466      Cu  0.40209870  0.79634339  0.65394579     0.43900
N467        N  0.40155432  0.73213068  0.61968841    -0.34800
N468        N  0.41540052  0.76073541  0.62209874    -0.29000
C469        C  0.43788480  0.76408368  0.59916075    -0.05100
C470        C  0.43921056  0.73622298  0.58098943     0.07100
C471        C  0.41578248  0.71613453  0.59475663     0.00900
H472        H  0.45185410  0.78581395  0.59546906     0.08500
H473        H  0.40881242  0.69241009  0.58647766     0.07600
N474        N  0.38284514  0.83548773  0.67743053    -0.36200
N475        N  0.35557477  0.83447256  0.69381457    -0.28400
C476        C  0.34682583  0.86489910  0.70139918    -0.03700
C477        C  0.36990666  0.88578056  0.68904758     0.05000
C478        C  0.39240015  0.86620076  0.67425219     0.03100
H479        H  0.32461309  0.87139032  0.71348651     0.08200
H480        H  0.41302791  0.87376295  0.66016146     0.07000
N481        N  0.31139681  0.06193634  0.69573152    -0.27400
N482        N  0.32369029  0.08770301  0.68118037    -0.35300
C483        C  0.30795296  0.11391125  0.69246979     0.00900
C484        C  0.28495384  0.10410687  0.71484994     0.07000
C485        C  0.28790223  0.07107254  0.71628221    -0.06100
H486        H  0.31337311  0.13850181  0.68557690     0.07600
H487        H  0.27469550  0.05487103  0.73191538     0.08800
Cu488      Cu  0.36306597  0.08712500  0.64782449     0.44200
Cu489      Cu  0.32781620  0.01502413  0.69100946     0.42000
Cu490      Cu  0.40223955  0.01060867  0.65108899     0.43900
N491        N  0.40408723  0.07601237  0.61870163    -0.34800
N492        N  0.41796361  0.04745201  0.62165276    -0.29000
C493        C  0.44160697  0.04439453  0.59986397    -0.05100
C494        C  0.44349204  0.07224094  0.58173823     0.07100
C495        C  0.41931028  0.09213626  0.59444029     0.00900
H496        H  0.45555285  0.02260886  0.59643808     0.08500
H497        H  0.41225007  0.11562234  0.58557010     0.07600
N498        N  0.38130376  0.97106432  0.67278596    -0.36200
N499        N  0.35287870  0.97207748  0.68704810    -0.28400
C500        C  0.34459567  0.94202758  0.69631767    -0.03700
C501        C  0.36913962  0.92123310  0.68722750     0.05000
C502        C  0.39197230  0.94053130  0.67243123     0.03100
H503        H  0.32201055  0.93569589  0.70778022     0.08200
H504        H  0.41417012  0.93284552  0.66105448     0.07000
N505        N  0.68455068  0.19463500  0.84015677    -0.27400
N506        N  0.67671488  0.21431836  0.81609956    -0.35300
C507        C  0.69477207  0.20618305  0.79021854     0.00900
C508        C  0.71455437  0.18029264  0.79821043     0.07000
C509        C  0.70724864  0.17359293  0.83000762    -0.06100
H510        H  0.69289027  0.21754011  0.76679115     0.07600
H511        H  0.71722350  0.15436488  0.84457790     0.08800
Cu512      Cu  0.63979730  0.25034865  0.81753583     0.44200
Cu513      Cu  0.66429317  0.19506573  0.88618089     0.42000
Cu514      Cu  0.59438784  0.24320966  0.88973470     0.43900
N515        N  0.59935836  0.28071537  0.82744443    -0.34800
N516        N  0.58298370  0.27629007  0.85443088    -0.29000
C517        C  0.56004292  0.29887353  0.85722114    -0.05100
C518        C  0.56120078  0.31904180  0.83076262     0.07100
C519        C  0.58649936  0.30674737  0.81201915     0.00900
H520        H  0.54436195  0.30126559  0.87793176     0.08500
H521        H  0.59581683  0.31692500  0.78989499     0.07600
N522        N  0.61173192  0.21853091  0.92922798    -0.36200
N523        N  0.63840548  0.20115478  0.92877644    -0.28400
C524        C  0.64548711  0.19206115  0.95923362    -0.03700
C525        C  0.62204080  0.20456940  0.97962281     0.05000
C526        C  0.60105037  0.22104432  0.95965134     0.03100
H527        H  0.66695034  0.17892195  0.96618324     0.08200
H528        H  0.58058262  0.23555428  0.96685012     0.07000
N529        N  0.68278606  0.19875089  0.15477673    -0.27400
N530        N  0.67564730  0.21930135  0.17830804    -0.35300
C531        C  0.69494891  0.21240480  0.20367793     0.00900
C532        C  0.71476264  0.18641724  0.19586616     0.07000
C533        C  0.70609200  0.17834188  0.16476565    -0.06100
H534        H  0.69356975  0.22431975  0.22686345     0.07600
H535        H  0.71537568  0.15843598  0.15065921     0.08800
Cu536      Cu  0.63752769  0.25430219  0.17693271     0.44200
Cu537      Cu  0.66108876  0.19710027  0.10963611     0.42000
Cu538      Cu  0.59361100  0.24814768  0.10323798     0.43900
N539        N  0.59624837  0.28378489  0.16692609    -0.34800
N540        N  0.58085691  0.28013094  0.13923252    -0.29000
C541        C  0.55697982  0.30182504  0.13693767    -0.05100
C542        C  0.55637917  0.32052075  0.16449256     0.07100
C543        C  0.58172785  0.30834375  0.18329720     0.00900
H544        H  0.54158582  0.30443211  0.11603628     0.08500
H545        H  0.58977480  0.31754661  0.20632971     0.07600
N546        N  0.61059269  0.22140913  0.06480631    -0.36200
N547        N  0.63630251  0.20271660  0.06651937    -0.28400
C548        C  0.64375758  0.19227170  0.03661079    -0.03700
C549        C  0.62152909  0.20518571  0.01518836     0.05000
C550        C  0.60082036  0.22333519  0.03402277     0.03100
H551        H  0.66474297  0.17790502  0.03071465     0.08200
H552        H  0.58132472  0.23860033  0.02576361     0.07000
N553        N  0.31264181  0.59862592  0.84465982    -0.27400
N554        N  0.32343455  0.58207581  0.81943059    -0.35300
C555        C  0.30724054  0.59247656  0.79309536     0.00900
C556        C  0.28557184  0.61650442  0.80214648     0.07000
C557        C  0.28988924  0.61981930  0.83495873    -0.06100
H558        H  0.31165522  0.58401367  0.76879950     0.07600
H559        H  0.27795566  0.63697896  0.85059500     0.08800
Cu560      Cu  0.36192495  0.54745940  0.82074150     0.44200
Cu561      Cu  0.32958235  0.59440966  0.89164304     0.42000
Cu562      Cu  0.40211002  0.55014036  0.89673894     0.43900
N563        N  0.40311037  0.51802199  0.83127025    -0.34800
N564        N  0.41747094  0.52087121  0.85960093    -0.29000
C565        C  0.44148500  0.49936559  0.86202935    -0.05100
C566        C  0.44312488  0.48148365  0.83398671     0.07100
C567        C  0.41834447  0.49404708  0.81469664     0.00900
H568        H  0.45592992  0.49600107  0.88349562     0.08500
H569        H  0.41104307  0.48536949  0.79121822     0.07600
N570        N  0.38155750  0.57237544  0.93616367    -0.36200
N571        N  0.35394465  0.58817874  0.93493440    -0.28400
C572        C  0.34582786  0.59751922  0.96501048    -0.03700
C573        C  0.36966097  0.58698807  0.98598387     0.05000
C574        C  0.39187569  0.57118956  0.96680863     0.03100
H575        H  0.32394262  0.61034149  0.97119447     0.08200
H576        H  0.41345306  0.55874110  0.97461650     0.07000
N577        N  0.31119504  0.60306948  0.16113500    -0.27400
N578        N  0.32005099  0.58474072  0.18585865    -0.35300
C579        C  0.30243821  0.59377169  0.21175312     0.00900
C580        C  0.28184987  0.61878321  0.20293070     0.07000
C581        C  0.28830691  0.62410703  0.17073933    -0.06100
H582        H  0.30540974  0.58392897  0.23574713     0.07600
H583        H  0.27793088  0.64267566  0.15560459     0.08800
Cu584      Cu  0.35804795  0.54984812  0.18459735     0.44200
Cu585      Cu  0.33093123  0.60124222  0.11521003     0.42000
Cu586      Cu  0.40428848  0.55870599  0.11223591     0.43900
N587        N  0.39885399  0.52020247  0.17400245    -0.34800
N588        N  0.41552959  0.52536307  0.14731019    -0.29000
C589        C  0.43828206  0.50266571  0.14399126    -0.05100
C590        C  0.43668707  0.48169304  0.16976946     0.07100
C591        C  0.41138327  0.49361417  0.18870510     0.00900
H592        H  0.45404057  0.50070813  0.12329280     0.08500
H593        H  0.40177271  0.48279153  0.21039241     0.07600
N594        N  0.38415630  0.57980762  0.07202325    -0.36200
N595        N  0.35607052  0.59478065  0.07250933    -0.28400
C596        C  0.34695796  0.60111228  0.04195431    -0.03700
C597        C  0.37053669  0.58931332  0.02140294     0.05000
C598        C  0.39377072  0.57612020  0.04134827     0.03100
H599        H  0.32414161  0.61185102  0.03519811     0.08200
H600        H  0.41509388  0.56291278  0.03410874     0.07000
N601        N  0.30669657  0.74593479  0.30680316    -0.27400
N602        N  0.31714653  0.72028004  0.32298114    -0.35300
C603        C  0.30271024  0.69397994  0.31032020     0.00900
C604        C  0.28267413  0.70345389  0.28517506     0.07000
C605        C  0.28592383  0.73648258  0.28358055    -0.06100
H606        H  0.30629160  0.66959478  0.31892972     0.07600
H607        H  0.27342280  0.75264035  0.26732919     0.08800
Cu608      Cu  0.35035371  0.72047166  0.36250398     0.44200
Cu609      Cu  0.31676287  0.79382695  0.31762571     0.42000
Cu610      Cu  0.35525679  0.79847534  0.39285922     0.43900
N611        N  0.38176863  0.73191024  0.40167644    -0.34800
N612        N  0.38174011  0.76186996  0.41241009    -0.29000
C613        C  0.40424553  0.76561297  0.43521283    -0.05100
C614        C  0.41987981  0.73664854  0.43986416     0.07100
C615        C  0.40489554  0.71541633  0.41820128     0.00900
H616        H  0.40978429  0.78840160  0.44665924     0.08500
H617        H  0.41132823  0.69052589  0.41382608     0.07600
N618        N  0.33866480  0.83829799  0.36916680    -0.36200
N619        N  0.32501482  0.83758709  0.34044000    -0.28400
C620        C  0.31914219  0.86815675  0.33095760    -0.03700
C621        C  0.32999192  0.88867071  0.35508430     0.05000
C622        C  0.34213151  0.86886828  0.37882304     0.03100
H623        H  0.30847346  0.87490100  0.30810194     0.08200
H624        H  0.35349777  0.87603461  0.40120007     0.07000
N625        N  0.30685358  0.06680363  0.31160941    -0.27400
N626        N  0.32003632  0.09288926  0.32476739    -0.35300
C627        C  0.30623913  0.11891182  0.31081949     0.00900
C628        C  0.28363679  0.10848819  0.28831475     0.07000
C629        C  0.28476158  0.07544685  0.28947336    -0.06100
H630        H  0.31222235  0.14367813  0.31651157     0.07600
H631        H  0.27060611  0.05876060  0.27523441     0.08800
Cu632      Cu  0.35587197  0.09280402  0.36201799     0.44200
Cu633      Cu  0.31662822  0.01957397  0.32289225     0.42000
Cu634      Cu  0.35880537  0.01375523  0.39464278     0.43900
N635        N  0.38652846  0.08083244  0.40173873    -0.34800
N636        N  0.38489452  0.05131445  0.41363718    -0.29000
C637        C  0.40656826  0.04763668  0.43720126    -0.05100
C638        C  0.42363418  0.07591632  0.44098090     0.07100
C639        C  0.41016323  0.09689290  0.41807887     0.00900
H640        H  0.41092352  0.02504110  0.44950517     0.08500
H641        H  0.41803638  0.12116191  0.41267523     0.07600
N642        N  0.34146608  0.97377508  0.37101999    -0.36200
N643        N  0.32607435  0.97550925  0.34326849    -0.28400
C644        C  0.31904188  0.94550576  0.33302156    -0.03700
C645        C  0.33079489  0.92401076  0.35567395     0.05000
C646        C  0.34486389  0.94276768  0.37937874     0.03100
H647        H  0.30657860  0.93985051  0.31078694     0.08200
H648        H  0.35719264  0.93457681  0.40087497     0.07000
N649        N  0.84153490  0.22030954  0.29601160    -0.27400
N650        N  0.81659410  0.23122072  0.31295305    -0.35300
C651        C  0.79010987  0.21470020  0.30369926     0.00900
C652        C  0.79868059  0.19251698  0.28013383     0.07000
C653        C  0.83139471  0.19690232  0.27576203    -0.06100
H654        H  0.76606444  0.21902971  0.31288345     0.07600
H655        H  0.84663004  0.18451828  0.25856296     0.08800
Cu656      Cu  0.81774539  0.26903152  0.34774794     0.44200
Cu657      Cu  0.88879778  0.23745224  0.29857998     0.42000
Cu658      Cu  0.89362202  0.30717124  0.34641979     0.43900
N659        N  0.82919324  0.30735168  0.37987778    -0.34800
N660        N  0.85803114  0.32074715  0.37805128    -0.29000
C661        C  0.86157038  0.34258771  0.40156788    -0.05100
C662        C  0.83360296  0.34381204  0.41955735     0.07100
C663        C  0.81324431  0.32111169  0.40505842     0.00900
H664        H  0.88352430  0.35601957  0.40586394     0.08500
H665        H  0.78940560  0.31421274  0.41305235     0.07600
N666        N  0.93274838  0.28911249  0.32208656    -0.36200
N667        N  0.93199005  0.26236260  0.30485396    -0.28400
C668        C  0.96227791  0.25540400  0.29511821    -0.03700
C669        C  0.98276880  0.27910420  0.30701176     0.05000
C670        C  0.96311203  0.30001162  0.32387026     0.03100
H671        H  0.96900545  0.23418221  0.28147948     0.08200
H672        H  0.97044484  0.32085788  0.33777046     0.07000
N673        N  0.15831195  0.22236837  0.29477064    -0.27400
N674        N  0.18185362  0.22842892  0.31562041    -0.35300
C675        C  0.20708006  0.20924540  0.30789055     0.00900
C676        C  0.19907890  0.19075944  0.28096167     0.07000
C677        C  0.16808766  0.19999185  0.27330744    -0.06100
H678        H  0.23013282  0.20955893  0.32014346     0.07600
H679        H  0.15369760  0.19134877  0.25332005     0.08800
Cu680      Cu  0.17992057  0.26477536  0.35229529     0.44200
Cu681      Cu  0.11305800  0.24344480  0.29475808     0.42000
Cu682      Cu  0.10749928  0.31177198  0.34313955     0.43900
N683        N  0.16901929  0.30552976  0.38197111    -0.34800
N684        N  0.14237764  0.32231147  0.37679646    -0.29000
C685        C  0.13937608  0.34547429  0.39911941    -0.05100
C686        C  0.16533929  0.34404702  0.41979519     0.07100
C687        C  0.18399376  0.31839567  0.40821198     0.00900
H688        H  0.11891865  0.36157224  0.40085995     0.08500
H689        H  0.20582206  0.30896249  0.41891497     0.07600
N690        N  0.06823868  0.29368022  0.31877535    -0.36200
N691        N  0.06969551  0.26722336  0.30118254    -0.28400
C692        C  0.03955087  0.25844366  0.29273259    -0.03700
C693        C  0.01823222  0.28060083  0.30585184     0.05000
C694        C  0.03734037  0.30264522  0.32205018     0.03100
H695        H  0.03353826  0.23663830  0.27969295     0.08200
H696        H  0.02932444  0.32247904  0.33701051     0.07000
N697        N  0.29721159  0.22026093  0.83809806    -0.27400
N698        N  0.31600402  0.22886925  0.81363801    -0.35300
C699        C  0.30754774  0.21080034  0.78781194     0.00900
C700        C  0.28243093  0.19021533  0.79648474     0.07000
C701        C  0.27649373  0.19713228  0.82843748    -0.06100
H702        H  0.31808871  0.21319194  0.76405137     0.07600
H703        H  0.25793972  0.18661943  0.84348627     0.08800
Cu704      Cu  0.35133046  0.26652743  0.81570672     0.44200
Cu705      Cu  0.29823781  0.23982128  0.88408921     0.42000
Cu706      Cu  0.34625760  0.30882992  0.89157208     0.43900
N707        N  0.38245354  0.30579017  0.82802398    -0.34800
N708        N  0.37927727  0.32045061  0.85619359    -0.29000
C709        C  0.40252442  0.34262872  0.85973652    -0.05100
C710        C  0.42169250  0.34282645  0.83254920     0.07100
C711        C  0.40820694  0.31914624  0.81260587     0.00900
H712        H  0.40576222  0.35712073  0.88119197     0.08500
H713        H  0.41724850  0.31135589  0.78942374     0.07600
N714        N  0.32053706  0.29024202  0.92990253    -0.36200
N715        N  0.30336703  0.26353503  0.92774767    -0.28400
C716        C  0.29378849  0.25466632  0.95753233    -0.03700
C717        C  0.30563934  0.27703554  0.97937685     0.05000
C718        C  0.32228379  0.29931395  0.96091496     0.03100
H719        H  0.28074266  0.23272294  0.96300464     0.08200
H720        H  0.33657449  0.31938897  0.96954732     0.07000
N721        N  0.29712378  0.21220256  0.15433661    -0.27400
N722        N  0.31478785  0.22238013  0.17906380    -0.35300
C723        C  0.30613641  0.20537750  0.20538503     0.00900
C724        C  0.28207500  0.18368828  0.19702646     0.07000
C725        C  0.27680518  0.18888724  0.16454210    -0.06100
H726        H  0.31541270  0.20969695  0.22940505     0.07600
H727        H  0.25858869  0.17755069  0.14967769     0.08800
Cu728      Cu  0.34816565  0.26120118  0.17852003     0.44200
Cu729      Cu  0.29828578  0.23113573  0.10771592     0.42000
Cu730      Cu  0.34198688  0.30398191  0.10522937     0.43900
N731        N  0.37727617  0.30206998  0.16875519    -0.34800
N732        N  0.37355748  0.31738523  0.14107342    -0.29000
C733        C  0.39575714  0.34067391  0.13836786    -0.05100
C734        C  0.41479568  0.34075737  0.16567188     0.07100
C735        C  0.40231325  0.31594151  0.18479080     0.00900
H736        H  0.39867858  0.35570303  0.11724313     0.08500
H737        H  0.41175548  0.30758432  0.20761436     0.07600
N738        N  0.31886507  0.28551495  0.06543463    -0.36200
N739        N  0.30328770  0.25774581  0.06536210    -0.28400
C740        C  0.29460007  0.25075939  0.03476075    -0.03700
C741        C  0.30547609  0.27545618  0.01489062     0.05000
C742        C  0.32059859  0.29701432  0.03527312     0.03100
H743        H  0.28268619  0.22873109  0.02736802     0.08200
H744        H  0.33356562  0.31865011  0.02853734     0.07000
N745        N  0.19545565  0.24170399  0.18380757    -0.27400
N746        N  0.18315844  0.21577511  0.16961490    -0.35300
C747        C  0.19416189  0.18953449  0.18539302     0.00900
C748        C  0.21384163  0.19954572  0.21058220     0.07000
C749        C  0.21419565  0.23267585  0.20875392    -0.06100
H750        H  0.18880822  0.16488047  0.17866937     0.07600
H751        H  0.22789844  0.24904596  0.22377255     0.08800
Cu752      Cu  0.15218887  0.21649878  0.12887509     0.44200
Cu753      Cu  0.18959977  0.28875853  0.16855028     0.42000
Cu754      Cu  0.15031997  0.29551580  0.09396764     0.43900
N755        N  0.12172446  0.22849762  0.08965512    -0.34800
N756        N  0.12256613  0.25788208  0.07729916    -0.29000
C757        C  0.09920648  0.26112837  0.05527420    -0.05100
C758        C  0.08229707  0.23255886  0.05309498     0.07100
C759        C  0.09735827  0.21203103  0.07514899     0.00900
H760        H  0.09374779  0.28348647  0.04297415     0.08500
H761        H  0.08992035  0.18787278  0.08155735     0.07600
N762        N  0.16918963  0.33482977  0.11772398    -0.36200
N763        N  0.18333214  0.33276781  0.14615120    -0.28400
C764        C  0.19029729  0.36268695  0.15675378    -0.03700
C765        C  0.17974171  0.38449413  0.13376634     0.05000
C766        C  0.16655655  0.36595733  0.10937499     0.03100
H767        H  0.20112046  0.36813543  0.17987783     0.08200
H768        H  0.15471285  0.37443128  0.08771277     0.07000
N769        N  0.19518890  0.56087913  0.19299917    -0.27400
N770        N  0.17926701  0.58633518  0.18173700    -0.35300
C771        C  0.18988192  0.61264270  0.19772926     0.00900
C772        C  0.21337968  0.60342204  0.21978981     0.07000
C773        C  0.21622440  0.57050135  0.21593353    -0.06100
H774        H  0.18200285  0.63704338  0.19281517     0.07600
H775        H  0.23305478  0.55475692  0.22819218     0.08800
Cu776      Cu  0.14533137  0.58625891  0.14292924     0.44200
Cu777      Cu  0.19060515  0.51362394  0.17660481     0.42000
Cu778      Cu  0.14694956  0.51075302  0.10415218     0.43900
N779        N  0.11614010  0.57650555  0.10171094    -0.34800
N780        N  0.11863409  0.54792312  0.08788295    -0.29000
C781        C  0.09724945  0.54534788  0.06388022    -0.05100
C782        C  0.07981199  0.57361102  0.06165955     0.07100
C783        C  0.09250959  0.59320997  0.08610216     0.00900
H784        H  0.09354816  0.52358527  0.04995862     0.08500
H785        H  0.08405070  0.61687657  0.09304340     0.07600
N786        N  0.16736900  0.47046542  0.12430187    -0.36200
N787        N  0.18299109  0.47059505  0.15202576    -0.28400
C788        C  0.19075529  0.43994538  0.15976513    -0.03700
C789        C  0.17931113  0.41990202  0.13550521     0.05000
C790        C  0.16471201  0.44013731  0.11350330     0.03100
H791        H  0.20307675  0.43277271  0.18163822     0.08200
H792        H  0.15199515  0.43332252  0.09175010     0.07000
N793        N  0.34254562  0.08976800  0.20306340    -0.27400
N794        N  0.31800666  0.07935622  0.18528351    -0.35300
C795        C  0.29136673  0.09584520  0.19417478     0.00900
C796        C  0.29933164  0.11735749  0.21861782     0.07000
C797        C  0.33195517  0.11269672  0.22369579    -0.06100
H798        H  0.26757721  0.09190747  0.18416940     0.07600
H799        H  0.34685801  0.12477791  0.24139659     0.08800
Cu800      Cu  0.32021319  0.04157111  0.15044713     0.44200
Cu801      Cu  0.38968280  0.07211504  0.20029882     0.42000
Cu802      Cu  0.39464545  0.99945599  0.15445350     0.43900
N803        N  0.33059768  0.00174699  0.11971489    -0.34800
N804        N  0.35852340  0.98663750  0.12256933    -0.29000
C805        C  0.36104575  0.96395945  0.09965338    -0.05100
C806        C  0.33340579  0.96407047  0.08099923     0.07100
C807        C  0.31430066  0.98836752  0.09453371     0.00900
H808        H  0.38219166  0.94909888  0.09607317     0.08500
H809        H  0.29116736  0.99664059  0.08580720     0.07600
N810        N  0.43356767  0.01893569  0.17868362    -0.36200
N811        N  0.43270960  0.04662082  0.19445161    -0.28400
C812        C  0.46307903  0.05466607  0.20306201    -0.03700
C813        C  0.48381346  0.03075554  0.19207688     0.05000
C814        C  0.46414284  0.00849187  0.17698155     0.03100
H815        H  0.46970764  0.07692710  0.21499402     0.08200
H816        H  0.47166443  0.98727892  0.16376149     0.07000
N817        N  0.66002783  0.08959118  0.19717513    -0.27400
N818        N  0.68534016  0.07823079  0.18116318    -0.35300
C819        C  0.71157283  0.09497339  0.19071546     0.00900
C820        C  0.70225958  0.11768316  0.21351674     0.07000
C821        C  0.66952856  0.11346445  0.21708330    -0.06100
H822        H  0.73589096  0.09035263  0.18242557     0.07600
H823        H  0.65385190  0.12612412  0.23367053     0.08800
Cu824      Cu  0.68446224  0.03894820  0.14816352     0.44200
Cu825      Cu  0.61336027  0.07187771  0.19482490     0.42000
Cu826      Cu  0.60846745  0.99843158  0.15335877     0.43900
N827        N  0.67323916  0.99818527  0.11923288    -0.34800
N828        N  0.64495950  0.98384119  0.12262853    -0.29000
C829        C  0.64192764  0.96041731  0.10059289    -0.05100
C830        C  0.66948636  0.95925486  0.08192442     0.07100
C831        C  0.68918664  0.98357084  0.09452512     0.00900
H832        H  0.62037051  0.94605878  0.09744576     0.08500
H833        H  0.71239800  0.99112567  0.08535533     0.07600
N834        N  0.56924507  0.01839619  0.17685484    -0.36200
N835        N  0.57043116  0.04655969  0.19163460    -0.28400
C836        C  0.54041320  0.05490092  0.20100290    -0.03700
C837        C  0.51939641  0.03069219  0.19143789     0.05000
C838        C  0.53862102  0.00792608  0.17637159     0.03100
H839        H  0.53418223  0.07754334  0.21241834     0.08200
H840        H  0.53073087  0.98622155  0.16420491     0.07000
N841        N  0.34186322  0.10043158  0.80811009    -0.27400
N842        N  0.31619520  0.08594028  0.82073099    -0.35300
C843        C  0.28974854  0.09797755  0.80603036     0.00900
C844        C  0.29916368  0.12096763  0.78351606     0.07000
C845        C  0.33232324  0.12178919  0.78545047    -0.06100
H846        H  0.26525202  0.09089315  0.81161101     0.07600
H847        H  0.34839949  0.13711781  0.77174355     0.08800
Cu848      Cu  0.31664088  0.05129955  0.85897711     0.44200
Cu849      Cu  0.38942459  0.09372139  0.82238626     0.42000
Cu850      Cu  0.39343121  0.05205473  0.89577866     0.43900
N851        N  0.32759660  0.02130350  0.89938660    -0.34800
N852        N  0.35655687  0.02349408  0.91248402    -0.29000
C853        C  0.35972510  0.00169660  0.93607340    -0.05100
C854        C  0.33150347  0.98430577  0.93877867     0.07100
C855        C  0.31126388  0.99747933  0.91509541     0.00900
H856        H  0.38176870  0.99783239  0.94948352     0.08500
H857        H  0.28729600  0.98933968  0.90882558     0.07600
N858        N  0.43351200  0.07179448  0.87437336    -0.36200
N859        N  0.43283989  0.08659322  0.84621287    -0.28400
C860        C  0.46333237  0.09368983  0.83736228    -0.03700
C861        C  0.48392550  0.08256142  0.86128013     0.05000
C862        C  0.46412140  0.06893748  0.88431669     0.03100
H863        H  0.47002973  0.10497362  0.81479026     0.08200
H864        H  0.47141413  0.05649887  0.90608085     0.07000
N865        N  0.66128616  0.09208154  0.80773163    -0.27400
N866        N  0.68639976  0.07530256  0.81847271    -0.35300
C867        C  0.71289605  0.08617837  0.80296739     0.00900
C868        C  0.70392827  0.11078040  0.78201964     0.07000
C869        C  0.67116063  0.11387376  0.78578721    -0.06100
H870        H  0.73719333  0.07782419  0.80759271     0.07600
H871        H  0.65566942  0.13142564  0.77423678     0.08800
Cu872      Cu  0.68523377  0.04036834  0.85635784     0.44200
Cu873      Cu  0.61414882  0.08862406  0.82328132     0.42000
Cu874      Cu  0.60840739  0.04461335  0.89408804     0.43900
N875        N  0.67353957  0.01189967  0.89759632    -0.34800
N876        N  0.64475559  0.01526929  0.91085676    -0.29000
C877        C  0.64144360  0.99463492  0.93545362    -0.05100
C878        C  0.66936593  0.97685746  0.93869078     0.07100
C879        C  0.68955487  0.98846253  0.91417924     0.00900
H880        H  0.61953760  0.99193212  0.94935701     0.08500
H881        H  0.71332394  0.97962326  0.90810174     0.07600
N882        N  0.56907853  0.06730917  0.87401674    -0.36200
N883        N  0.57058029  0.08334674  0.84660729    -0.28400
C884        C  0.54060781  0.09253221  0.83800289    -0.03700
C885        C  0.51937163  0.08152143  0.86134923     0.05000
C886        C  0.53832213  0.06576641  0.88381033     0.03100
H887        H  0.53465658  0.10517278  0.81594344     0.08200
H888        H  0.53026675  0.05274577  0.90495060     0.07000
N889        N  0.33925799  0.70794908  0.19144447    -0.27400
N890        N  0.31401589  0.72410902  0.18002280    -0.35300
C891        C  0.28735680  0.71267891  0.19488493     0.00900
C892        C  0.29621768  0.68836016  0.21622198     0.07000
C893        C  0.32923048  0.68606567  0.21334501    -0.06100
H894        H  0.26307823  0.72097803  0.19007914     0.07600
H895        H  0.34486907  0.66935406  0.22589686     0.08800
Cu896      Cu  0.31529671  0.76007573  0.14295008     0.44200
Cu897      Cu  0.38695604  0.71311871  0.17694662     0.42000
Cu898      Cu  0.39253716  0.75904573  0.10678046     0.43900
N899        N  0.32699090  0.79051197  0.10300430    -0.34800
N900        N  0.35613309  0.78828590  0.09032625    -0.29000
C901        C  0.35950164  0.80965311  0.06639105    -0.05100
C902        C  0.33123171  0.82679679  0.06295431     0.07100
C903        C  0.31077150  0.81401844  0.08668485     0.00900
H904        H  0.38159354  0.81312974  0.05296188     0.08500
H905        H  0.28657439  0.82195743  0.09229819     0.07600
N906        N  0.43174677  0.73568264  0.12600323    -0.36200
N907        N  0.43052955  0.71900715  0.15306191    -0.28400
C908        C  0.46047104  0.70848176  0.16025574    -0.03700
C909        C  0.48127570  0.71922754  0.13633275     0.05000
C910        C  0.46215377  0.73633441  0.11509016     0.03100
H911        H  0.46668546  0.69464339  0.18150817     0.08200
H912        H  0.46983545  0.74918492  0.09370487     0.07000
N913        N  0.65806313  0.69750259  0.18760376    -0.27400
N914        N  0.68309197  0.71499352  0.17785124    -0.35300
C915        C  0.70909298  0.70559257  0.19502049     0.00900
C916        C  0.69998598  0.68130067  0.21622360     0.07000
C917        C  0.66758721  0.67668582  0.21069280    -0.06100
H918        H  0.73318173  0.71511004  0.19175566     0.07600
H919        H  0.65207590  0.65915321  0.22224016     0.08800
Cu920      Cu  0.68258943  0.75019897  0.14030957     0.44200
Cu921      Cu  0.61135530  0.70044886  0.17018235     0.42000
Cu922      Cu  0.60704104  0.74742658  0.10041143     0.43900
N923        N  0.67176737  0.78100054  0.10063461    -0.34800
N924        N  0.64333917  0.77832130  0.08648046    -0.29000
C925        C  0.64023349  0.80093093  0.06364723    -0.05100
C926        C  0.66798377  0.81924265  0.06252601     0.07100
C927        C  0.68784616  0.80585378  0.08635833     0.00900
H928        H  0.61862027  0.80448484  0.04947312     0.08500
H929        H  0.71138569  0.81440678  0.09363301     0.07600
N930        N  0.56697562  0.72581729  0.12026176    -0.36200
N931        N  0.56791810  0.70887525  0.14717208    -0.28400
C932        C  0.53749532  0.70233717  0.15662223    -0.03700
C933        C  0.51657937  0.71608551  0.13444727     0.05000
C934        C  0.53616968  0.73056624  0.11169104     0.03100
H935        H  0.53112242  0.69014988  0.17881639     0.08200
H936        H  0.52865988  0.74535876  0.09153316     0.07000
N937        N  0.81384217  0.24526185  0.19573541    -0.27400
N938        N  0.82292026  0.21992506  0.17843392    -0.35300
C939        C  0.80448072  0.19460989  0.18730912     0.00900
C940        C  0.78303444  0.20446810  0.21114180     0.07000
C941        C  0.78991158  0.23665579  0.21598816    -0.06100
H942        H  0.80772780  0.17023606  0.17853408     0.07600
H943        H  0.77941961  0.25232092  0.23404098     0.08800
Cu944      Cu  0.86262419  0.21941930  0.14592454     0.44200
Cu945      Cu  0.83511353  0.29033620  0.19392633     0.42000
Cu946      Cu  0.90910912  0.29270846  0.15241339     0.43900
N947        N  0.90521331  0.22781439  0.11867380    -0.34800
N948        N  0.92214784  0.25447528  0.12323152    -0.29000
C949        C  0.94601949  0.25603150  0.10155421    -0.05100
C950        C  0.94459672  0.22932669  0.08174633     0.07100
C951        C  0.91843362  0.21155272  0.09341481     0.00900
H952        H  0.96179725  0.27662172  0.09873908     0.08500
H953        H  0.90831881  0.18998355  0.08280396     0.07600
N954        N  0.88839482  0.33351451  0.17223182    -0.36200
N955        N  0.86045131  0.33273685  0.18745673    -0.28400
C956        C  0.85138435  0.36305307  0.19463631    -0.03700
C957        C  0.87474923  0.38391456  0.18315229     0.05000
C958        C  0.89791108  0.36436226  0.16912626     0.03100
H959        H  0.82880783  0.36945427  0.20606733     0.08200
H960        H  0.91933641  0.37200285  0.15631984     0.07000
N961        N  0.81370358  0.55894703  0.20094099    -0.27400
N962        N  0.82282633  0.58460390  0.18402738    -0.35300
C963        C  0.80567415  0.61017536  0.19463839     0.00900
C964        C  0.78508788  0.60024141  0.21916967     0.07000
C965        C  0.79100605  0.56768630  0.22260664    -0.06100
H966        H  0.80859909  0.63457614  0.18582848     0.07600
H967        H  0.78009789  0.55158061  0.24001174     0.08800
Cu968      Cu  0.86015339  0.58552088  0.14846823     0.44200
Cu969      Cu  0.83231972  0.51260016  0.19612866     0.42000
Cu970      Cu  0.90343894  0.51141067  0.15158298     0.43900
N971        N  0.90133097  0.57652746  0.11893792    -0.34800
N972        N  0.91699456  0.54900813  0.12256099    -0.29000
C973        C  0.94070878  0.54678921  0.10087461    -0.05100
C974        C  0.94073684  0.57404561  0.08192887     0.07100
C975        C  0.91541420  0.59284418  0.09411334     0.00900
H976        H  0.95579091  0.52570596  0.09790377     0.08500
H977        H  0.90683260  0.61552879  0.08452156     0.07600
N978        N  0.88463369  0.47015427  0.17131799    -0.36200
N979        N  0.85733278  0.47002624  0.18763383    -0.28400
C980        C  0.84981671  0.43933361  0.19518401    -0.03700
C981        C  0.87368218  0.41938630  0.18284473     0.05000
C982        C  0.89534257  0.43978866  0.16786687     0.03100
H983        H  0.82823221  0.43205105  0.20792661     0.08200
H984        H  0.91671016  0.43306669  0.15446115     0.07000
N985        N  0.81429387  0.10906584  0.33976169    -0.27400
N986        N  0.82297366  0.09026727  0.31526506    -0.35300
C987        C  0.80537342  0.09895198  0.28930282     0.00900
C988        C  0.78502415  0.12418236  0.29775366     0.07000
C989        C  0.79152187  0.13008392  0.32980786    -0.06100
H990        H  0.80794137  0.08841902  0.26555653     0.07600
H991        H  0.78091602  0.14868840  0.34473738     0.08800
Cu992      Cu  0.86001707  0.05443748  0.31571458     0.44200
Cu993      Cu  0.83292575  0.10771354  0.38628509     0.42000
Cu994      Cu  0.90175661  0.05885614  0.38921654     0.43900
N995        N  0.90005712  0.02368362  0.32557423    -0.34800
N996        N  0.91502519  0.02716205  0.35346784    -0.29000
C997        C  0.93807236  0.00479085  0.35650341    -0.05100
C998        C  0.93849053  0.98567911  0.32926840     0.07100
C999        C  0.91397885  0.99842648  0.30975185     0.00900
H1000       H  0.95277822  0.00183211  0.37785071     0.08500
H1001       H  0.90594707  0.98910297  0.28675970     0.07600
N1002       N  0.88427002  0.08242067  0.42918439    -0.36200
N1003       N  0.85783611  0.10012993  0.42903288    -0.28400
C1004       C  0.85048533  0.10824875  0.45969351    -0.03700
C1005       C  0.87356992  0.09473590  0.47985152     0.05000
C1006       C  0.89459433  0.07873896  0.45957280     0.03100
H1007       H  0.82911391  0.12142596  0.46686063     0.08200
H1008       H  0.91480144  0.06372273  0.46645904     0.07000
N1009       N  0.81755945  0.10045228  0.65715831    -0.27400
N1010       N  0.82741351  0.08210714  0.68149060    -0.35300
C1011       C  0.81065154  0.09073591  0.70803434     0.00900
C1012       C  0.78959414  0.11556247  0.70006908     0.07000
C1013       C  0.79471859  0.12109622  0.66766909    -0.06100
H1014       H  0.81417909  0.08038974  0.73174088     0.07600
H1015       H  0.78323048  0.13931225  0.65292090     0.08800
Cu1016     Cu  0.86492132  0.04719541  0.67893543     0.44200
Cu1017     Cu  0.83552127  0.09895041  0.61042193     0.42000
Cu1018     Cu  0.90469924  0.05000739  0.60242788     0.43900
N1019       N  0.90436779  0.01665130  0.66734055    -0.34800
N1020       N  0.91841618  0.01892322  0.63880483    -0.29000
C1021       C  0.94120832  0.99617837  0.63602829    -0.05100
C1022       C  0.94222272  0.97829813  0.66410798     0.07100
C1023       C  0.91852669  0.99202323  0.68373765     0.00900
H1024       H  0.95537938  0.99222279  0.61448121     0.08500
H1025       H  0.91121047  0.98382097  0.70737966     0.07600
N1026       N  0.88570103  0.07597652  0.56447347    -0.36200
N1027       N  0.85931885  0.09365488  0.56672792    -0.28400
C1028       C  0.85129888  0.10446883  0.53710092    -0.03700
C1029       C  0.87387830  0.09286651  0.51532546     0.05000
C1030       C  0.89532689  0.07505054  0.53362027     0.03100
H1031       H  0.82996447  0.11850740  0.53167372     0.08200
H1032       H  0.91554224  0.06097935  0.52498316     0.07000
N1033       N  0.18572757  0.70418881  0.34424924    -0.27400
N1034       N  0.17692792  0.72315293  0.31997237    -0.35300
C1035       C  0.19427121  0.71443769  0.29381669     0.00900
C1036       C  0.21451185  0.68898259  0.30204819     0.07000
C1037       C  0.20830349  0.68313082  0.33413158    -0.06100
H1038       H  0.19123330  0.72473001  0.27002204     0.07600
H1039       H  0.21847341  0.66407863  0.34880053     0.08800
Cu1040     Cu  0.13936201  0.75845469  0.32161757     0.44200
Cu1041     Cu  0.16667041  0.70454135  0.39025443     0.42000
Cu1042     Cu  0.09981172  0.75627703  0.39745899     0.43900
N1043       N  0.09933626  0.78902973  0.33238884    -0.34800
N1044       N  0.08551793  0.78691180  0.36103066    -0.29000
C1045       C  0.06194977  0.80887778  0.36354078    -0.05100
C1046       C  0.05997482  0.82615151  0.33513432     0.07100
C1047       C  0.08415474  0.81287273  0.31561737     0.00900
H1048       H  0.04765165  0.81255493  0.38505196     0.08500
H1049       H  0.09088460  0.82072881  0.29168479     0.07600
N1050       N  0.11742847  0.72971599  0.43556379    -0.36200
N1051       N  0.14290252  0.71075645  0.43349543    -0.28400
C1052       C  0.15031638  0.69966819  0.46312909    -0.03700
C1053       C  0.12821973  0.71239067  0.48470122     0.05000
C1054       C  0.10771662  0.73118421  0.46634409     0.03100
H1055       H  0.17091252  0.68460153  0.46867239     0.08200
H1056       H  0.08820247  0.74627342  0.47488957     0.07000
N1057       N  0.18892500  0.69944294  0.65957401    -0.27400
N1058       N  0.17916279  0.71733129  0.68430047    -0.35300
C1059       C  0.19648794  0.70852298  0.71043554     0.00900
C1060       C  0.21789347  0.68418992  0.70178749     0.07000
C1061       C  0.21216674  0.67892387  0.66945788    -0.06100
H1062       H  0.19279783  0.71806766  0.73445116     0.07600
H1063       H  0.22329840  0.66074253  0.65439506     0.08800
Cu1064     Cu  0.14045306  0.75131185  0.68332616     0.44200
Cu1065     Cu  0.17002478  0.70073480  0.61324506     0.42000
Cu1066     Cu  0.09673995  0.74333474  0.61054812     0.43900
N1067       N  0.09851901  0.77941242  0.67355491    -0.34800
N1068       N  0.08265727  0.77443077  0.64637436    -0.29000
C1069       C  0.05860683  0.79576649  0.64353922    -0.05100
C1070       C  0.05855940  0.81570285  0.67015505     0.07100
C1071       C  0.08425247  0.80460898  0.68905736     0.00900
H1072       H  0.04328630  0.79779138  0.62251306     0.08500
H1073       H  0.09302005  0.81525354  0.71118729     0.07600
N1074       N  0.11636167  0.72167779  0.57062007    -0.36200
N1075       N  0.14419512  0.70625000  0.57082117    -0.28400
C1076       C  0.15224971  0.69874441  0.54022561    -0.03700
C1077       C  0.12824018  0.71038507  0.52005826     0.05000
C1078       C  0.10591144  0.72463450  0.54020298     0.03100
H1079       H  0.17469998  0.68746969  0.53310865     0.08200
H1080       H  0.08456379  0.73794773  0.53322434     0.07000
N1081       N  0.79564056  0.24056927  0.81547873    -0.27400
N1082       N  0.81427246  0.21609299  0.82443450    -0.35300
C1083       C  0.80673367  0.19045452  0.80581600     0.00900
C1084       C  0.78248220  0.19916298  0.78433801     0.07000
C1085       C  0.77591566  0.23100368  0.79141938    -0.06100
H1086       H  0.81715681  0.16667500  0.80856831     0.07600
H1087       H  0.75746632  0.24593119  0.78055226     0.08800
Cu1088     Cu  0.84814427  0.21695623  0.86319445     0.44200
Cu1089     Cu  0.79562225  0.28630020  0.83599522     0.42000
Cu1090     Cu  0.84214786  0.29096159  0.90674477     0.43900
N1091       N  0.87797822  0.22740198  0.90371694    -0.34800
N1092       N  0.87423299  0.25502670  0.91920275    -0.29000
C1093       C  0.89685721  0.25792209  0.94208001    -0.05100
C1094       C  0.91624800  0.23086741  0.94178807     0.07100
C1095       C  0.90352409  0.21167902  0.91709981     0.00900
H1096       H  0.89986767  0.27908914  0.95703812     0.08500
H1097       H  0.91316292  0.18904338  0.90844920     0.07600
N1098       N  0.81870705  0.33049558  0.88766724    -0.36200
N1099       N  0.80193602  0.32942889  0.86063176    -0.28400
C1100       C  0.79445822  0.35980817  0.85166381    -0.03700
C1101       C  0.80743510  0.38086539  0.87420337     0.05000
C1102       C  0.82239005  0.36133802  0.89674567     0.03100
H1103       H  0.78246941  0.36614509  0.82935586     0.08200
H1104       H  0.83701538  0.36900991  0.91695595     0.07000
N1105       N  0.80097567  0.55752221  0.81316472    -0.27400
N1106       N  0.81876659  0.58205134  0.82361568    -0.35300
C1107       C  0.80940845  0.60887928  0.80775969     0.00900
C1108       C  0.78472163  0.60102839  0.78658279     0.07000
C1109       C  0.77993832  0.56831646  0.79075027    -0.06100
H1110       H  0.81914607  0.63271467  0.81207137     0.07600
H1111       H  0.76192747  0.55355673  0.77895217     0.08800
Cu1112     Cu  0.85372892  0.58027809  0.86102704     0.44200
Cu1113     Cu  0.80346870  0.51021337  0.83027905     0.42000
Cu1114     Cu  0.85238231  0.50476557  0.90037775     0.43900
N1115       N  0.88353103  0.57062896  0.90145127    -0.34800
N1116       N  0.88154006  0.54217309  0.91564610    -0.29000
C1117       C  0.90315351  0.54042329  0.93958723    -0.05100
C1118       C  0.92010234  0.56909653  0.94117278     0.07100
C1119       C  0.90695038  0.58799735  0.91653786     0.00900
H1120       H  0.90716740  0.51910357  0.95408635     0.08500
H1121       H  0.91478412  0.61178127  0.90925792     0.07600
N1122       N  0.82737372  0.46588507  0.88182838    -0.36200
N1123       N  0.80968511  0.46706936  0.85535867    -0.28400
C1124       C  0.79873125  0.43710504  0.84875607    -0.03700
C1125       C  0.81019170  0.41629813  0.87237222     0.05000
C1126       C  0.82815715  0.43548233  0.89286918     0.03100
H1127       H  0.78429526  0.43081432  0.82792941     0.08200
H1128       H  0.84188267  0.42777679  0.91368682     0.07000
N1129       N  0.80042308  0.71649513  0.34078844    -0.27400
N1130       N  0.81590525  0.72792528  0.31519056    -0.35300
C1131       C  0.80613201  0.71076055  0.28922749     0.00900
C1132       C  0.78384867  0.68761597  0.29908203     0.07000
C1133       C  0.78073811  0.69221747  0.33181513    -0.06100
H1134       H  0.81395497  0.71529785  0.26473914     0.07600
H1135       H  0.76460400  0.67947369  0.34789063     0.08800
Cu1136     Cu  0.84901892  0.76752912  0.31623671     0.44200
Cu1137     Cu  0.80366525  0.73437600  0.38731764     0.42000
Cu1138     Cu  0.84574894  0.80741838  0.39334501     0.43900
N1139       N  0.87935994  0.80742141  0.32827635    -0.34800
N1140       N  0.87672272  0.82132872  0.35687529    -0.29000
C1141       C  0.89950906  0.84401223  0.36018170    -0.05100
C1142       C  0.91789616  0.84524389  0.33245984     0.07100
C1143       C  0.90433540  0.82170044  0.31239740     0.00900
H1144       H  0.90316174  0.85796738  0.38192353     0.08500
H1145       H  0.91289317  0.81456330  0.28882440     0.07600
N1146       N  0.82284559  0.78669502  0.43243491    -0.36200
N1147       N  0.80801328  0.75858541  0.43075351    -0.28400
C1148       C  0.79941135  0.74931659  0.46070277    -0.03700
C1149       C  0.80946840  0.77287871  0.48217955     0.05000
C1150       C  0.82407583  0.79624457  0.46334108     0.03100
H1151       H  0.78811958  0.72650160  0.46651078     0.08200
H1152       H  0.83647630  0.81767194  0.47161778     0.07000
N1153       N  0.80249413  0.70959534  0.65721215    -0.27400
N1154       N  0.82074090  0.71923273  0.68172137    -0.35300
C1155       C  0.81122522  0.70311688  0.70832967     0.00900
C1156       C  0.78584220  0.68281551  0.70028510     0.07000
C1157       C  0.78091564  0.68765047  0.66776001    -0.06100
H1158       H  0.82091380  0.70710434  0.73224353     0.07600
H1159       H  0.76219826  0.67695462  0.65304360     0.08800
Cu1160     Cu  0.85525347  0.75705730  0.68024909     0.44200
Cu1161     Cu  0.80417568  0.72773817  0.61050197     0.42000
Cu1162     Cu  0.84559813  0.80168201  0.60784037     0.43900
N1163       N  0.88271540  0.79906202  0.67041859    -0.34800
N1164       N  0.87755816  0.81518177  0.64341095    -0.29000
C1165       C  0.89896453  0.83923896  0.64077377    -0.05100
C1166       C  0.91892514  0.83895770  0.66739974     0.07100
C1167       C  0.90788061  0.81313745  0.68603550     0.00900
H1168       H  0.90091220  0.85488579  0.61998744     0.08500
H1169       H  0.91853389  0.80414948  0.70807442     0.07600
N1170       N  0.82261646  0.78263301  0.56813172    -0.36200
N1171       N  0.80806361  0.75431990  0.56822702    -0.28400
C1172       C  0.79951996  0.74681095  0.53773907    -0.03700
C1173       C  0.80939587  0.77174609  0.51769485     0.05000
C1174       C  0.82377197  0.79401934  0.53788367     0.03100
H1175       H  0.78843726  0.72428825  0.53054490     0.08200
H1176       H  0.83600626  0.81600158  0.53092910     0.07000
N1177       N  0.34268097  0.71189569  0.80608462    -0.27400
N1178       N  0.31736051  0.72333630  0.82202316    -0.35300
C1179       C  0.29091002  0.70763335  0.81133208     0.00900
C1180       C  0.30003525  0.68557995  0.78779325     0.07000
C1181       C  0.33296119  0.68905836  0.78505113    -0.06100
H1182       H  0.26654746  0.71269739  0.81921388     0.07600
H1183       H  0.34861818  0.67673873  0.76818621     0.08800
Cu1184     Cu  0.31844950  0.76214535  0.85582601     0.44200
Cu1185     Cu  0.38948401  0.72898752  0.80979234     0.42000
Cu1186     Cu  0.39243029  0.80498608  0.84875400     0.43900
N1187       N  0.32829909  0.80414004  0.88380178    -0.34800
N1188       N  0.35575122  0.81973715  0.87933858    -0.29000
C1189       C  0.35804078  0.84404427  0.90055283    -0.05100
C1190       C  0.33085672  0.84446753  0.91986780     0.07100
C1191       C  0.31219752  0.81872988  0.90845823     0.00900
H1192       H  0.37900099  0.85940228  0.90290951     0.08500
H1193       H  0.28968938  0.81021309  0.91849453     0.07600
N1194       N  0.43216475  0.78430546  0.82658931    -0.36200
N1195       N  0.43166776  0.75549901  0.81300152    -0.28400
C1196       C  0.46185631  0.74751562  0.80393749    -0.03700
C1197       C  0.48226496  0.77259465  0.81242619     0.05000
C1198       C  0.46255613  0.79548407  0.82662149     0.03100
H1199       H  0.46858846  0.72467771  0.79321488     0.08200
H1200       H  0.46993688  0.81798184  0.83761225     0.07000
N1201       N  0.65847358  0.71476493  0.79914000    -0.27400
N1202       N  0.68250962  0.72291699  0.81867330    -0.35300
C1203       C  0.70877058  0.70566422  0.81002559     0.00900
C1204       C  0.70100347  0.68613924  0.78385485     0.07000
C1205       C  0.66897273  0.69272401  0.77759850    -0.06100
H1206       H  0.73228179  0.70805440  0.82111866     0.07600
H1207       H  0.65444839  0.68269368  0.75837237     0.08800
Cu1208     Cu  0.68012781  0.75966087  0.85462461     0.44200
Cu1209     Cu  0.61214118  0.73402673  0.80061225     0.42000
Cu1210     Cu  0.60739649  0.80550764  0.84671338     0.43900
N1211       N  0.66982349  0.80038222  0.88420857    -0.34800
N1212       N  0.64289467  0.81686756  0.87968613    -0.29000
C1213       C  0.64047053  0.84018253  0.90193681    -0.05100
C1214       C  0.66715020  0.83910572  0.92182223     0.07100
C1215       C  0.68556906  0.81351827  0.90984548     0.00900
H1216       H  0.61998956  0.85619399  0.90417968     0.08500
H1217       H  0.70781086  0.80431700  0.91986970     0.07600
N1218       N  0.56807201  0.78636381  0.82303326    -0.36200
N1219       N  0.56905843  0.75890142  0.80693675    -0.28400
C1220       C  0.53869245  0.75022278  0.79912191    -0.03700
C1221       C  0.51777156  0.77349744  0.81098387     0.05000
C1222       C  0.53732217  0.79607626  0.82578930     0.03100
H1223       H  0.53224566  0.72787997  0.78724586     0.08200
H1224       H  0.52966493  0.81684714  0.83962334     0.07000
C1225       C  0.22505758  0.63564677  0.73702117     0.02200
C1226       C  0.23716063  0.62336404  0.76649322     0.02200
C1227       C  0.26545965  0.63661715  0.78009077     0.02200
C1228       C  0.27808150  0.66574785  0.76757295     0.02200
C1229       C  0.26576714  0.67845388  0.73830343     0.02200
C1230       C  0.23786329  0.66463019  0.72429173     0.02200
C1231       C  0.73668509  0.67747076  0.73543311     0.02200
C1232       C  0.72381951  0.66581868  0.76483864     0.02200
C1233       C  0.73701241  0.63775076  0.77901540     0.02200
C1234       C  0.76578467  0.62415296  0.76666503     0.02200
C1235       C  0.77883803  0.63603916  0.73753221     0.02200
C1236       C  0.76576188  0.66412506  0.72331060     0.02200
C1237       C  0.73480706  0.63307632  0.22611857     0.02200
C1238       C  0.72180203  0.66248189  0.23742796     0.02200
C1239       C  0.73502968  0.67745165  0.26500384     0.02200
C1240       C  0.76439276  0.66603143  0.27798793     0.02200
C1241       C  0.77735794  0.63645156  0.26683742     0.02200
C1242       C  0.76416329  0.62153724  0.23910320     0.02200
C1243       C  0.72582422  0.13176347  0.76312703     0.02200
C1244       C  0.74057581  0.11914960  0.73513619     0.02200
C1245       C  0.76867441  0.13388112  0.72277565     0.02200
C1246       C  0.77881987  0.16407489  0.73526688     0.02200
C1247       C  0.76398837  0.17672536  0.76328485     0.02200
C1248       C  0.73585471  0.16194385  0.77570630     0.02200
N1249       N  0.18721221  0.24386344  0.80135010    -0.27400
N1250       N  0.17453911  0.21820541  0.81572934    -0.35300
C1251       C  0.18963122  0.19177193  0.80418528     0.00900
C1252       C  0.21268441  0.20127232  0.78178922     0.07000
C1253       C  0.21045674  0.23441027  0.78063325    -0.06100
H1254       H  0.18386648  0.16726011  0.81108560     0.07600
H1255       H  0.22407729  0.25046996  0.76521301     0.08800
Cu1256     Cu  0.13577089  0.21928377  0.84941928     0.44200
Cu1257     Cu  0.17131831  0.29092452  0.80706660     0.42000
Cu1258     Cu  0.09509821  0.29456889  0.84499918     0.43900
N1259       N  0.09523303  0.23027963  0.87883876    -0.34800
N1260       N  0.08059515  0.25840411  0.87555849    -0.29000
C1261       C  0.05730462  0.26135513  0.89773881    -0.05100
C1262       C  0.05645408  0.23372946  0.91624466     0.07100
C1263       C  0.08089727  0.21425046  0.90359625     0.00900
H1264       H  0.04284925  0.28283090  0.90103094     0.08500
H1265       H  0.08864539  0.19108065  0.91271164     0.07600
N1266       N  0.11717957  0.33438797  0.82557592    -0.36200
N1267       N  0.14622103  0.33376780  0.81255466    -0.28400
C1268       C  0.15550275  0.36423827  0.80613676    -0.03700
C1269       C  0.13100109  0.38478755  0.81585362     0.05000
C1270       C  0.10711038  0.36501332  0.82793652     0.03100
H1271       H  0.17879581  0.37094960  0.79644078     0.08200
H1272       H  0.08474235  0.37234135  0.83923138     0.07000
N1273       N  0.18860077  0.56048265  0.80469545    -0.27400
N1274       N  0.17731083  0.58624812  0.81999624    -0.35300
C1275       C  0.19392347  0.61217427  0.80937468     0.00900
C1276       C  0.21643033  0.60217232  0.78658765     0.07000
C1277       C  0.21218485  0.56933661  0.78414212    -0.06100
H1278       H  0.18928250  0.63675980  0.81683371     0.07600
H1279       H  0.22463769  0.55311854  0.76791756     0.08800
Cu1280     Cu  0.13808474  0.58592120  0.85337208     0.44200
Cu1281     Cu  0.17118338  0.51403977  0.80940026     0.42000
Cu1282     Cu  0.09701995  0.51007886  0.85009592     0.43900
N1283       N  0.09720227  0.57531158  0.88269803    -0.34800
N1284       N  0.08251282  0.54716939  0.87963254    -0.29000
C1285       C  0.05927006  0.54439476  0.90185842    -0.05100
C1286       C  0.05858538  0.57199063  0.92038708     0.07100
C1287       C  0.08294016  0.59146598  0.90747172     0.00900
H1288       H  0.04489329  0.52289966  0.90535272     0.08500
H1289       H  0.09082580  0.61460577  0.91655274     0.07600
N1290       N  0.11822855  0.47020265  0.82959138    -0.36200
N1291       N  0.14656110  0.47116687  0.81514539    -0.28400
C1292       C  0.15535901  0.44098028  0.80703563    -0.03700
C1293       C  0.13122933  0.42017253  0.81700481     0.05000
C1294       C  0.10808750  0.43953120  0.83116644     0.03100
H1295       H  0.17795108  0.43463618  0.79559455     0.08200
H1296       H  0.08609002  0.43185380  0.84294758     0.07000
C1297       C  0.26417825  0.12538372  0.73487664     0.02200
C1298       C  0.23389538  0.13553846  0.72304454     0.02200
C1299       C  0.21996371  0.16437790  0.73471394     0.02200
C1300       C  0.23339768  0.17961762  0.76216327     0.02200
C1301       C  0.26341276  0.16892909  0.77462261     0.02200
C1302       C  0.27737632  0.14022987  0.76252838     0.02200
C1303       C  0.22098757  0.63935774  0.26778584     0.02200
C1304       C  0.23382247  0.62555119  0.23930357     0.02200
C1305       C  0.26200253  0.63881357  0.22519156     0.02200
C1306       C  0.27423317  0.66863493  0.23662316     0.02200
C1307       C  0.26183378  0.68198013  0.26539220     0.02200
C1308       C  0.23365148  0.66892209  0.27935508     0.02200
C1309       C  0.73655645  0.12784224  0.26220935     0.02200
C1310       C  0.76421336  0.14284279  0.27534109     0.02200
C1311       C  0.77619209  0.17165576  0.26145885     0.02200
C1312       C  0.76334860  0.18277288  0.23180744     0.02200
C1313       C  0.73556930  0.16794735  0.21871560     0.02200
C1314       C  0.72391390  0.13892123  0.23247240     0.02200
N1315       N  0.19373794  0.09615748  0.34185208    -0.27400
N1316       N  0.17805639  0.08513043  0.31617232    -0.35300
C1317       C  0.18951516  0.10087253  0.29003844     0.00900
C1318       C  0.21341622  0.12240009  0.29968944     0.07000
C1319       C  0.21544828  0.11860470  0.33264420    -0.06100
H1320       H  0.18198606  0.09611105  0.26549730     0.07600
H1321       H  0.23219080  0.13054317  0.34871940     0.08800
Cu1322     Cu  0.14371446  0.04656790  0.31647538     0.44200
Cu1323     Cu  0.18851222  0.07942004  0.38874708     0.42000
Cu1324     Cu  0.14898623  0.00491987  0.39143564     0.43900
N1325       N  0.11498360  0.00510799  0.32701513    -0.34800
N1326       N  0.11884073  0.99027056  0.35496661    -0.29000
C1327       C  0.09722830  0.96647944  0.35794258    -0.05100
C1328       C  0.07830370  0.96545271  0.33063075     0.07100
C1329       C  0.09029961  0.99031616  0.31114480     0.00900
H1330       H  0.09447500  0.95185594  0.37937528     0.08500
H1331       H  0.08068296  0.99810275  0.28819377     0.07600
N1332       N  0.16928129  0.02543263  0.43168321    -0.36200
N1333       N  0.18316077  0.05406479  0.43150662    -0.28400
C1334       C  0.19060527  0.06232652  0.46206925    -0.03700
C1335       C  0.18068174  0.03752010  0.48219891     0.05000
C1336       C  0.16738636  0.01457152  0.46205905     0.03100
H1337       H  0.20130512  0.08506708  0.46915376     0.08200
H1338       H  0.15576265  0.99225875  0.46901012     0.07000
N1339       N  0.19604781  0.08656842  0.66042167    -0.27400
N1340       N  0.18163727  0.07420504  0.68622435    -0.35300
C1341       C  0.19265216  0.09031410  0.71234194     0.00900
C1342       C  0.21473093  0.11353771  0.70231552     0.07000
C1343       C  0.21629387  0.11032485  0.66938212    -0.06100
H1344       H  0.18555890  0.08522160  0.73694404     0.07600
H1345       H  0.23140767  0.12394860  0.65303845     0.08800
Cu1346     Cu  0.14819999  0.03495045  0.68536572     0.44200
Cu1347     Cu  0.19041730  0.07156355  0.61330374     0.42000
Cu1348     Cu  0.14922985  0.99905272  0.60681951     0.43900
N1349       N  0.11832607  0.99498143  0.67277602    -0.34800
N1350       N  0.12050386  0.98239592  0.64355889    -0.29000
C1351       C  0.09837371  0.95921037  0.63982210    -0.05100
C1352       C  0.08083373  0.95629576  0.66789227     0.07100
C1353       C  0.09419046  0.97935069  0.68864134     0.00900
H1354       H  0.09438755  0.94629763  0.61750023     0.08500
H1355       H  0.08597465  0.98529399  0.71266354     0.07600
N1356       N  0.16911848  0.02144107  0.56735160    -0.36200
N1357       N  0.18388544  0.04953832  0.56919292    -0.28400
C1358       C  0.19136678  0.05957941  0.53920607    -0.03700
C1359       C  0.18060555  0.03643540  0.51762292     0.05000
C1360       C  0.16669448  0.01262793  0.53635438     0.03100
H1361       H  0.20284546  0.08233905  0.53355153     0.08200
H1362       H  0.15445983  0.99110690  0.52808292     0.07000
C1363       C  0.26222175  0.16496293  0.22027110     0.02200
C1364       C  0.27638847  0.13859660  0.23648408     0.02200
C1365       C  0.26381659  0.12879035  0.26667674     0.02200
C1366       C  0.23442113  0.14193597  0.27804765     0.02200
C1367       C  0.22102208  0.16905006  0.26248330     0.02200
C1368       C  0.23322806  0.17859374  0.23205166     0.02200
loop_ 
_geom_bond_atom_site_label_1 
_geom_bond_atom_site_label_2 
_geom_bond_distance 
_geom_bond_site_symmetry_2 
_ccdc_geom_bond_type 
O1           Cu9   2.074       .  S
O1           C11   1.284       .  A
O2           Cu9   2.075       .  S
O2           C12   1.284       .  A
O3           Cu9   2.076       .  S
O3           C13   1.284       .  A
O4           Cu9   2.073       .  S
O4           C14   1.284       .  A
O5          Cu10   1.991       .  S
O5           C14   1.275       .  A
O6          Cu10   1.990       .  S
O6           C13   1.276       .  A
O7          Cu10   1.995       .  S
O7           C12   1.277       .  A
O8          Cu10   1.996       .  S
O8           C11   1.276       .  A
Cu9         Cu10   2.363       .  S
C11         C494   1.490       .  S
C12         C398   1.491       .  S
C13         C638   1.491       .  S
C14         C206   1.487       .  S
O15         Cu23   2.079       .  S
O15          C25   1.285       .  A
O16         Cu23   2.077       .  S
O16          C26   1.285       .  A
O17         Cu23   2.059       .  S
O17          C27   1.282       .  A
O18         Cu23   2.055       .  S
O18          C28   1.281       .  A
O19         Cu24   1.998       .  S
O19          C28   1.277       .  A
O20         Cu24   2.002       .  S
O20          C27   1.278       .  A
O21         Cu24   1.994       .  S
O21          C26   1.276       .  A
O22         Cu24   1.993       .  S
O22          C25   1.276       .  A
Cu23        Cu24   2.363       .  S
C25         C350   1.491       .  S
C26         C446   1.491       .  S
C27         C686   1.485       .  S
C28         C254   1.482       .  S
O29         Cu37   2.075       .  S
O29          C39   1.284       .  A
O30         Cu37   2.080       .  S
O30          C40   1.285       .  A
O31         Cu37   2.067       .  S
O31          C41   1.283       .  A
O32         Cu37   2.066       .  S
O32          C42   1.282       .  A
O33         Cu38   1.998       .  S
O33          C42   1.277       .  A
O34         Cu38   1.999       .  S
O34          C41   1.277       .  A
O35         Cu38   1.997       .  S
O35          C40   1.276       .  A
O36         Cu38   1.995       .  S
O36          C39   1.276       .  A
Cu37        Cu38   2.363       .  S
C39         C470   1.490       .  S
C40         C374   1.492       .  S
C41         C182   1.487       .  S
C42         C614   1.488       .  S
O43         Cu51   1.995       .  S
O43          C53   1.276       .  A
O44         Cu51   1.994       .  S
O44          C54   1.276       .  A
O45         Cu51   1.997       .  S
O45          C55   1.277       .  A
O46         Cu51   1.997       .  S
O46          C56   1.277       .  A
O47         Cu52   2.059       .  S
O47          C56   1.282       .  A
O48         Cu52   2.060       .  S
O48          C55   1.282       .  A
O49         Cu52   2.070       .  S
O49          C54   1.284       .  A
O50         Cu52   2.072       .  S
O50          C53   1.284       .  A
Cu51        Cu52   2.364       .  S
C53         C230   1.489       .  S
C54         C662   1.487       .  S
C55         C326   1.485       .  S
C56         C422   1.483       .  S
O57         Cu65   2.067       .  S
O57          C67   1.283       .  A
O58         Cu65   2.069       .  S
O58          C68   1.283       .  A
O59         Cu65   2.078       .  S
O59          C69   1.285       .  A
O60         Cu65   2.072       .  S
O60          C70   1.284       .  A
O61         Cu66   1.999       .  S
O61          C70   1.277       .  A
O62         Cu66   2.003       .  S
O62          C69   1.277       .  A
O63         Cu66   1.990       .  S
O63          C68   1.276       .  A
O64         Cu66   1.988       .  S
O64          C67   1.276       .  A
Cu65        Cu66   2.363       .  S
C67         C302   1.486       .  S
C68         C734   1.485       .  S
C69         C542   1.494       .  S
C70         C590   1.489       .  S
O71         Cu79   2.069       .  S
O71          C81   1.283       .  A
O72         Cu79   2.068       .  S
O72          C82   1.283       .  A
O73         Cu79   2.077       .  S
O73          C83   1.285       .  A
O74         Cu79   2.077       .  S
O74          C84   1.284       .  A
O75         Cu80   1.998       .  S
O75          C84   1.276       .  A
O76         Cu80   1.999       .  S
O76          C83   1.277       .  A
O77         Cu80   1.998       .  S
O77          C82   1.277       .  A
O78         Cu80   1.996       .  S
O78          C81   1.277       .  A
Cu79        Cu80   2.362       .  S
C81         C278   1.488       .  S
C82         C710   1.489       .  S
C83         C566   1.493       .  S
C84         C518   1.491       .  S
O85         Cu93   1.981   1_656  S
O85          C95   1.274       .  A
O86         Cu93   1.982       .  S
O86          C96   1.274       .  A
O87         Cu93   1.991   1_655  S
O87          C97   1.277       .  A
O88         Cu93   1.994   1_556  S
O88          C98   1.277       .  A
O89         Cu94   2.065   1_456  S
O89          C98   1.283       .  A
O90         Cu94   2.066       .  S
O90          C97   1.282       .  A
O91         Cu94   2.081   1_455  S
O91          C96   1.285       .  A
O92         Cu94   2.079   1_556  S
O92          C95   1.285       .  A
Cu93        Cu94   2.363   1_455  S
C95        C1118   1.487       .  S
C96         C782   1.489       .  S
C97         C974   1.485       .  S
C98        C1286   1.486       .  S
O99        Cu107   1.990       .  S
O99         C109   1.275       .  A
O100       Cu107   1.991   1_556  S
O100        C110   1.275       .  A
O101       Cu107   1.996       .  S
O101        C111   1.277       .  A
O102       Cu107   1.996   1_556  S
O102        C112   1.277       .  A
O103       Cu108   2.072   1_556  S
O103        C112   1.283       .  A
O104       Cu108   2.070       .  S
O104        C111   1.283       .  A
O105       Cu108   2.071   1_556  S
O105        C110   1.284       .  A
O106       Cu108   2.075       .  S
O106        C109   1.284       .  A
Cu107      Cu108   2.363       .  S
C109        C830   1.488       .  S
C110       C1214   1.486       .  S
C111        C926   1.489       .  S
C112        C878   1.489       .  S
O113       Cu121   2.062   1_455  S
O113        C123   1.283       .  A
O114       Cu121   2.069   1_554  S
O114        C124   1.283       .  A
O115       Cu121   2.071       .  S
O115        C125   1.284       .  A
O116       Cu121   2.064   1_454  S
O116        C126   1.283       .  A
O117       Cu122   1.986   1_454  S
O117        C126   1.275       .  A
O118       Cu122   1.992       .  S
O118        C125   1.276       .  A
O119       Cu122   1.990   1_554  S
O119        C124   1.276       .  A
O120       Cu122   1.992   1_455  S
O120        C123   1.276       .  A
Cu121      Cu122   2.364       .  S
C123       C1262   1.484       .  S
C124        C950   1.485       .  S
C125       C1094   1.488       .  S
C126        C758   1.482       .  S
O127       Cu135   1.994       .  S
O127        C137   1.275       .  A
O128       Cu135   1.992   1_554  S
O128        C138   1.275       .  A
O129       Cu135   1.997   1_554  S
O129        C139   1.277       .  A
O130       Cu135   1.997       .  S
O130        C140   1.277       .  A
O131       Cu136   2.073   1_556  S
O131        C140   1.283       .  A
O132       Cu136   2.070       .  S
O132        C139   1.283       .  A
O133       Cu136   2.079       .  S
O133        C138   1.285       .  A
O134       Cu136   2.083   1_556  S
O134        C137   1.286       .  A
Cu135      Cu136   2.362   1_556  S
C137       C1190   1.493       .  S
C138        C806   1.490       .  S
C139        C902   1.490       .  S
C140        C854   1.490       .  S
O141       Cu149   2.062   1_455  S
O141        C151   1.282       .  A
O142       Cu149   2.063       .  S
O142        C152   1.283       .  A
O143       Cu149   2.068   1_455  S
O143        C153   1.283       .  A
O144       Cu149   2.068       .  S
O144        C154   1.284       .  A
O145       Cu150   1.990   1_655  S
O145        C154   1.275       .  A
O146       Cu150   1.991       .  S
O146        C153   1.276       .  A
O147       Cu150   1.995   1_655  S
O147        C152   1.276       .  A
O148       Cu150   1.994       .  S
O148        C151   1.277       .  A
Cu149      Cu150   2.364   1_655  S
C151       C1352   1.486       .  S
C152       C1166   1.484       .  S
C153       C1070   1.486       .  S
C154       C1022   1.485       .  S
O155       Cu163   2.069   1_455  S
O155        C165   1.283       .  A
O156       Cu163   2.072       .  S
O156        C166   1.284       .  A
O157       Cu163   2.077       .  S
O157        C167   1.284       .  A
O158       Cu163   2.079   1_455  S
O158        C168   1.285       .  A
O159       Cu164   1.994   1_455  S
O159        C168   1.276       .  A
O160       Cu164   1.991       .  S
O160        C167   1.276       .  A
O161       Cu164   1.997       .  S
O161        C166   1.277       .  A
O162       Cu164   1.995   1_455  S
O162        C165   1.277       .  A
Cu163      Cu164   2.362       .  S
C165       C1328   1.487       .  S
C166       C1142   1.490       .  S
C167        C998   1.490       .  S
C168       C1046   1.491       .  S
N169        N170   1.328       .  A
N169        C173   1.349       .  A
N169       Cu177   2.077       .  S
N170        C171   1.351       .  A
N170       Cu176   2.138       .  S
C171        C172   1.391       .  A
C171        H174   1.082       .  S
C172       C1231   1.489       .  S
C172        C173   1.378       .  A
C173        H175   1.082       .  S
Cu176       N179   2.135       .  S
Cu177       N187   2.075       .  S
Cu178       N180   2.058       .  S
Cu178       N186   2.059       .  S
N179        N180   1.322       .  A
N179        C183   1.362       .  A
N180        C181   1.338       .  A
C181        C182   1.377       .  A
C181        H184   1.081       .  S
C182        C183   1.401       .  A
C183        H185   1.081       .  S
N186        N187   1.319       .  A
N186        C190   1.342       .  A
N187        C188   1.348       .  A
C188        C189   1.387       .  A
C188        H191   1.082       .  S
C189        C213   1.474       .  S
C189        C190   1.383       .  A
C190        H192   1.082       .  S
N193        N194   1.328       .  A
N193        C197   1.350       .  A
N193       Cu201   2.082       .  S
N194        C195   1.349       .  A
N194       Cu200   2.129       .  S
C195        C196   1.389       .  A
C195        H198   1.082       .  S
C196       C1244   1.489       .  S
C196        C197   1.380       .  A
C197        H199   1.082       .  S
Cu200       N203   2.126       .  S
Cu201       N211   2.080   1_545  S
Cu202       N204   2.062       .  S
Cu202       N210   2.061   1_545  S
N203        N204   1.322       .  A
N203        C207   1.361       .  A
N204        C205   1.339       .  A
C205        C206   1.380       .  A
C205        H208   1.082       .  S
C206        C207   1.398       .  A
C207        H209   1.081       .  S
N210        N211   1.320       .  A
N210        C214   1.342       .  A
N211        C212   1.348       .  A
C212        C213   1.387       .  A
C212        H215   1.082       .  S
C213        C214   1.382       .  A
C214        H216   1.082       .  S
N217        N218   1.327       .  A
N217        C221   1.349       .  A
N217       Cu225   2.071       .  S
N218        C219   1.350       .  A
N218       Cu224   2.133       .  S
C219        C220   1.390       .  A
C219        H222   1.082       .  S
C220       C1235   1.487       .  S
C220        C221   1.378       .  A
C221        H223   1.082       .  S
Cu224       N227   2.130       .  S
Cu225       N235   2.069       .  S
Cu226       N228   2.067       .  S
Cu226       N234   2.067       .  S
N227        N228   1.323       .  A
N227        C231   1.361       .  A
N228        C229   1.340       .  A
C229        C230   1.380       .  A
C229        H232   1.081       .  S
C230        C231   1.399       .  A
C231        H233   1.081       .  S
N234        N235   1.320       .  A
N234        C238   1.343       .  A
N235        C236   1.347       .  A
C236        C237   1.385       .  A
C236        H239   1.082       .  S
C237        C261   1.473   1_655  S
C237        C238   1.384       .  A
C238        H240   1.082       .  S
N241        N242   1.328       .  A
N241        C245   1.350       .  A
N241       Cu249   2.084       .  S
N242        C243   1.350       .  A
N242       Cu248   2.130       .  S
C243        C244   1.390       .  A
C243        H246   1.082       .  S
C244       C1225   1.490       .  S
C244        C245   1.380       .  A
C245        H247   1.082       .  S
Cu248       N251   2.126       .  S
Cu249       N259   2.081       .  S
Cu250       N252   2.051       .  S
Cu250       N258   2.052       .  S
N251        N252   1.322       .  A
N251        C255   1.360       .  A
N252        C253   1.338       .  A
C253        C254   1.377       .  A
C253        H256   1.081       .  S
C254        C255   1.398       .  A
C255        H257   1.081       .  S
N258        N259   1.319       .  A
N258        C262   1.341       .  A
N259        C260   1.348       .  A
C260        C261   1.388       .  A
C260        H263   1.082       .  S
C261        C262   1.381       .  A
C262        H264   1.082       .  S
N265        N266   1.328       .  A
N265        C269   1.348       .  A
N265       Cu273   2.067       .  S
N266        C267   1.348       .  A
N266       Cu272   2.129       .  S
C267        C268   1.387       .  A
C267        H270   1.082       .  S
C268       C1233   1.480       .  S
C268        C269   1.376       .  A
C269        H271   1.082       .  S
Cu272       N275   2.125       .  S
Cu273       N283   2.065       .  S
Cu274       N276   2.056       .  S
Cu274       N282   2.056       .  S
N275        N276   1.321       .  A
N275        C279   1.361       .  A
N276        C277   1.338       .  A
C277        C278   1.379       .  A
C277        H280   1.081       .  S
C278        C279   1.400       .  A
C279        H281   1.081       .  S
N282        N283   1.319       .  A
N282        C286   1.339       .  A
N283        C284   1.347       .  A
C284        C285   1.385       .  A
C284        H287   1.082       .  S
C285        C309   1.468   1_556  S
C285        C286   1.381       .  A
C286        H288   1.082       .  S
N289        N290   1.329       .  A
N289        C293   1.348       .  A
N289       Cu297   2.071       .  S
N290        C291   1.352       .  A
N290       Cu296   2.142       .  S
C291        C292   1.392       .  A
C291        H294   1.082       .  S
C292       C1237   1.488       .  S
C292        C293   1.376       .  A
C293        H295   1.082       .  S
Cu296       N299   2.137       .  S
Cu297       N307   2.068       .  S
Cu298       N300   2.048       .  S
Cu298       N306   2.048       .  S
N299        N300   1.321       .  A
N299        C303   1.363       .  A
N300        C301   1.336       .  A
C301        C302   1.377       .  A
C301        H304   1.082       .  S
C302        C303   1.401       .  A
C303        H305   1.081       .  S
N306        N307   1.318       .  A
N306        C310   1.339       .  A
N307        C308   1.348       .  A
C308        C309   1.386       .  A
C308        H311   1.082       .  S
C309        C310   1.380       .  A
C310        H312   1.082       .  S
N313        N314   1.328       .  A
N313        C317   1.348       .  A
N313       Cu321   2.073       .  S
N314        C315   1.350       .  A
N314       Cu320   2.136       .  S
C315        C316   1.391       .  A
C315        H318   1.082       .  S
C316       C1241   1.486       .  S
C316        C317   1.377       .  A
C317        H319   1.082       .  S
Cu320       N323   2.132       .  S
Cu321       N331   2.070       .  S
Cu322       N324   2.054       .  S
Cu322       N330   2.055       .  S
N323        N324   1.322       .  A
N323        C327   1.361       .  A
N324        C325   1.338       .  A
C325        C326   1.377       .  A
C325        H328   1.081       .  S
C326        C327   1.400       .  A
C327        H329   1.081       .  S
N330        N331   1.318       .  A
N330        C334   1.341       .  A
N331        C332   1.348       .  A
C332        C333   1.387       .  A
C332        H335   1.082       .  S
C333        C357   1.472   1_655  S
C333        C334   1.382       .  A
C334        H336   1.082       .  S
N337        N338   1.329       .  A
N337        C341   1.350       .  A
N337       Cu345   2.083       .  S
N338        C339   1.351       .  A
N338       Cu344   2.139       .  S
C339        C340   1.391       .  A
C339        H342   1.082       .  S
C340       C1303   1.491       .  S
C340        C341   1.381       .  A
C341        H343   1.082       .  S
Cu344       N347   2.135       .  S
Cu345       N355   2.080       .  S
Cu346       N348   2.058       .  S
Cu346       N354   2.058       .  S
N347        N348   1.321       .  A
N347        C351   1.363       .  A
N348        C349   1.339       .  A
C349        C350   1.380       .  A
C349        H352   1.082       .  S
C350        C351   1.401       .  A
C351        H353   1.081       .  S
N354        N355   1.320       .  A
N354        C358   1.341       .  A
N355        C356   1.349       .  A
C356        C357   1.387       .  A
C356        H359   1.082       .  S
C357        C358   1.381       .  A
C358        H360   1.082       .  S
N361        N362   1.328       .  A
N361        C365   1.349       .  A
N361       Cu369   2.073       .  S
N362        C363   1.350       .  A
N362       Cu368   2.138       .  S
C363        C364   1.391       .  A
C363        H366   1.082       .  S
C364       C1239   1.487       .  S
C364        C365   1.378       .  A
C365        H367   1.082       .  S
Cu368       N371   2.135       .  S
Cu369       N379   2.071       .  S
Cu370       N372   2.070       .  S
Cu370       N378   2.070       .  S
N371        N372   1.322       .  A
N371        C375   1.363       .  A
N372        C373   1.341       .  A
C373        C374   1.381       .  A
C373        H376   1.082       .  S
C374        C375   1.400       .  A
C375        H377   1.081       .  S
N378        N379   1.320       .  A
N378        C382   1.342       .  A
N379        C380   1.348       .  A
C380        C381   1.386       .  A
C380        H383   1.082       .  S
C381        C405   1.475       .  S
C381        C382   1.384       .  A
C382        H384   1.082       .  S
N385        N386   1.330       .  A
N385        C389   1.352       .  A
N385       Cu393   2.093       .  S
N386        C387   1.351       .  A
N386       Cu392   2.141       .  S
C387        C388   1.390       .  A
C387        H390   1.082       .  S
C388       C1309   1.493       .  S
C388        C389   1.381       .  A
C389        H391   1.082       .  S
Cu392       N395   2.137       .  S
Cu393       N403   2.090   1_545  S
Cu394       N396   2.053       .  S
Cu394       N402   2.053   1_545  S
N395        N396   1.321       .  A
N395        C399   1.363       .  A
N396        C397   1.338       .  A
C397        C398   1.379       .  A
C397        H400   1.082       .  S
C398        C399   1.402       .  A
C399        H401   1.081       .  S
N402        N403   1.319       .  A
N402        C406   1.340       .  A
N403        C404   1.351       .  A
C404        C405   1.390       .  A
C404        H407   1.082       .  S
C405        C406   1.380       .  A
C406        H408   1.082       .  S
N409        N410   1.327       .  A
N409        C413   1.345       .  A
N409       Cu417   2.063       .  S
N410        C411   1.351       .  A
N410       Cu416   2.132       .  S
C411        C412   1.392       .  A
C411        H414   1.082       .  S
C412       C1246   1.486       .  S
C412        C413   1.377       .  A
C413        H415   1.082       .  S
Cu416       N419   2.129       .  S
Cu417       N427   2.062       .  S
Cu418       N420   2.058       .  S
Cu418       N426   2.058       .  S
N419        N420   1.323       .  A
N419        C423   1.360       .  A
N420        C421   1.339       .  A
C421        C422   1.378       .  A
C421        H424   1.082       .  S
C422        C423   1.397       .  A
C423        H425   1.081       .  S
N426        N427   1.318       .  A
N426        C430   1.340       .  A
N427        C428   1.347       .  A
C428        C429   1.385       .  A
C428        H431   1.082       .  S
C429        C453   1.470   1_655  S
C429        C430   1.383       .  A
C430        H432   1.082       .  S
N433        N434   1.329       .  A
N433        C437   1.351       .  A
N433       Cu441   2.084       .  S
N434        C435   1.351       .  A
N434       Cu440   2.140       .  S
C435        C436   1.391       .  A
C435        H438   1.082       .  S
C436       C1299   1.491       .  S
C436        C437   1.381       .  A
C437        H439   1.082       .  S
Cu440       N443   2.137       .  S
Cu441       N451   2.081       .  S
Cu442       N444   2.056       .  S
Cu442       N450   2.054       .  S
N443        N444   1.321       .  A
N443        C447   1.362       .  A
N444        C445   1.340       .  A
C445        C446   1.381       .  A
C445        H448   1.082       .  S
C446        C447   1.401       .  A
C447        H449   1.081       .  S
N450        N451   1.320       .  A
N450        C454   1.339       .  A
N451        C452   1.349       .  A
C452        C453   1.388       .  A
C452        H455   1.082       .  S
C453        C454   1.379       .  A
C454        H456   1.082       .  S
N457        N458   1.329       .  A
N457        C461   1.350       .  A
N457       Cu465   2.084       .  S
N458        C459   1.351       .  A
N458       Cu464   2.138       .  S
C459        C460   1.390       .  A
C459        H462   1.082       .  S
C460       C1229   1.490       .  S
C460        C461   1.380       .  A
C461        H463   1.082       .  S
Cu464       N467   2.134       .  S
Cu465       N475   2.081       .  S
Cu466       N468   2.056       .  S
Cu466       N474   2.054       .  S
N467        N468   1.321       .  A
N467        C471   1.362       .  A
N468        C469   1.339       .  A
C469        C470   1.380       .  A
C469        H472   1.082       .  S
C470        C471   1.401       .  A
C471        H473   1.081       .  S
N474        N475   1.320       .  A
N474        C478   1.340       .  A
N475        C476   1.349       .  A
C476        C477   1.388       .  A
C476        H479   1.082       .  S
C477        C501   1.472       .  S
C477        C478   1.380       .  A
C478        H480   1.082       .  S
N481        N482   1.328       .  A
N481        C485   1.348       .  A
N481       Cu489   2.069       .  S
N482        C483   1.351       .  A
N482       Cu488   2.139       .  S
C483        C484   1.391       .  A
C483        H486   1.082       .  S
C484       C1297   1.486       .  S
C484        C485   1.376       .  A
C485        H487   1.082       .  S
Cu488       N491   2.136       .  S
Cu489       N499   2.068   1_545  S
Cu490       N492   2.061       .  S
Cu490       N498   2.061   1_545  S
N491        N492   1.322       .  A
N491        C495   1.363       .  A
N492        C493   1.339       .  A
C493        C494   1.379       .  A
C493        H496   1.082       .  S
C494        C495   1.401       .  A
C495        H497   1.081       .  S
N498        N499   1.319       .  A
N498        C502   1.341       .  A
N499        C500   1.348       .  A
C500        C501   1.386       .  A
C500        H503   1.082       .  S
C501        C502   1.383       .  A
C502        H504   1.082       .  S
N505        N506   1.329       .  A
N505        C509   1.350       .  A
N505       Cu513   2.085       .  S
N506        C507   1.351       .  A
N506       Cu512   2.139       .  S
C507        C508   1.391       .  A
C507        H510   1.082       .  S
C508       C1248   1.493       .  S
C508        C509   1.381       .  A
C509        H511   1.082       .  S
Cu512       N515   2.136       .  S
Cu513       N523   2.082       .  S
Cu514       N516   2.060       .  S
Cu514       N522   2.060       .  S
N515        N516   1.321       .  A
N515        C519   1.363       .  A
N516        C517   1.339       .  A
C517        C518   1.380       .  A
C517        H520   1.081       .  S
C518        C519   1.401       .  A
C519        H521   1.081       .  S
N522        N523   1.320       .  A
N522        C526   1.341       .  A
N523        C524   1.350       .  A
C524        C525   1.389       .  A
C524        H527   1.082       .  S
C525        C549   1.475   1_556  S
C525        C526   1.382       .  A
C526        H528   1.082       .  S
N529        N530   1.328       .  A
N529        C533   1.349       .  A
N529       Cu537   2.077       .  S
N530        C531   1.352       .  A
N530       Cu536   2.146       .  S
C531        C532   1.393       .  A
C531        H534   1.082       .  S
C532       C1313   1.492       .  S
C532        C533   1.380       .  A
C533        H535   1.082       .  S
Cu536       N539   2.143       .  S
Cu537       N547   2.075       .  S
Cu538       N540   2.065       .  S
Cu538       N546   2.064       .  S
N539        N540   1.322       .  A
N539        C543   1.363       .  A
N540        C541   1.341       .  A
C541        C542   1.380       .  A
C541        H544   1.081       .  S
C542        C543   1.402       .  A
C543        H545   1.081       .  S
N546        N547   1.320       .  A
N546        C550   1.341       .  A
N547        C548   1.349       .  A
C548        C549   1.387       .  A
C548        H551   1.082       .  S
C549        C550   1.383       .  A
C550        H552   1.082       .  S
N553        N554   1.328       .  A
N553        C557   1.350       .  A
N553       Cu561   2.078       .  S
N554        C555   1.352       .  A
N554       Cu560   2.146       .  S
C555        C556   1.393       .  A
C555        H558   1.082       .  S
C556       C1227   1.492       .  S
C556        C557   1.379       .  A
C557        H559   1.082       .  S
Cu560       N563   2.143       .  S
Cu561       N571   2.075       .  S
Cu562       N564   2.061       .  S
Cu562       N570   2.061       .  S
N563        N564   1.322       .  A
N563        C567   1.363       .  A
N564        C565   1.340       .  A
C565        C566   1.380       .  A
C565        H568   1.082       .  S
C566        C567   1.402       .  A
C567        H569   1.081       .  S
N570        N571   1.320       .  A
N570        C574   1.341       .  A
N571        C572   1.348       .  A
C572        C573   1.386       .  A
C572        H575   1.082       .  S
C573        C597   1.472   1_556  S
C573        C574   1.382       .  A
C574        H576   1.082       .  S
N577        N578   1.327       .  A
N577        C581   1.349       .  A
N577       Cu585   2.074       .  S
N578        C579   1.351       .  A
N578       Cu584   2.139       .  S
C579        C580   1.392       .  A
C579        H582   1.082       .  S
C580       C1305   1.489       .  S
C580        C581   1.379       .  A
C581        H583   1.082       .  S
Cu584       N587   2.136       .  S
Cu585       N595   2.072       .  S
Cu586       N588   2.059       .  S
Cu586       N594   2.059       .  S
N587        N588   1.322       .  A
N587        C591   1.362       .  A
N588        C589   1.339       .  A
C589        C590   1.379       .  A
C589        H592   1.082       .  S
C590        C591   1.400       .  A
C591        H593   1.081       .  S
N594        N595   1.319       .  A
N594        C598   1.341       .  A
N595        C596   1.348       .  A
C596        C597   1.386       .  A
C596        H599   1.082       .  S
C597        C598   1.382       .  A
C598        H600   1.082       .  S
N601        N602   1.330       .  A
N601        C605   1.350       .  A
N601       Cu609   2.077       .  S
N602        C603   1.350       .  A
N602       Cu608   2.140       .  S
C603        C604   1.389       .  A
C603        H606   1.082       .  S
C604       C1307   1.487       .  S
C604        C605   1.377       .  A
C605        H607   1.082       .  S
Cu608       N611   2.135       .  S
Cu609       N619   2.074       .  S
Cu610       N612   2.041       .  S
Cu610       N618   2.040       .  S
N611        N612   1.319       .  A
N611        C615   1.362       .  A
N612        C613   1.337       .  A
C613        C614   1.378       .  A
C613        H616   1.082       .  S
C614        C615   1.402       .  A
C615        H617   1.081       .  S
N618        N619   1.319       .  A
N618        C622   1.337       .  A
N619        C620   1.349       .  A
C620        C621   1.388       .  A
C620        H623   1.082       .  S
C621        C645   1.465       .  S
C621        C622   1.377       .  A
C622        H624   1.082       .  S
N625        N626   1.329       .  A
N625        C629   1.345       .  A
N625       Cu633   2.053       .  S
N626        C627   1.351       .  A
N626       Cu632   2.143       .  S
C627        C628   1.391       .  A
C627        H630   1.082       .  S
C628       C1365   1.479       .  S
C628        C629   1.371       .  A
C629        H631   1.082       .  S
Cu632       N635   2.138       .  S
Cu633       N643   2.050   1_545  S
Cu634       N636   2.052       .  S
Cu634       N642   2.055   1_545  S
N635        N636   1.321       .  A
N635        C639   1.364       .  A
N636        C637   1.336       .  A
C637        C638   1.378       .  A
C637        H640   1.082       .  S
C638        C639   1.403       .  A
C639        H641   1.081       .  S
N642        N643   1.317       .  A
N642        C646   1.338       .  A
N643        C644   1.346       .  A
C644        C645   1.383       .  A
C644        H647   1.082       .  S
C645        C646   1.382       .  A
C646        H648   1.082       .  S
N649        N650   1.329       .  A
N649        C653   1.350       .  A
N649       Cu657   2.087       .  S
N650        C651   1.350       .  A
N650       Cu656   2.130       .  S
C651        C652   1.388       .  A
C651        H654   1.082       .  S
C652       C1311   1.489       .  S
C652        C653   1.380       .  A
C653        H655   1.082       .  S
Cu656       N659   2.126       .  S
Cu657       N667   2.083       .  S
Cu658       N660   2.053       .  S
Cu658       N666   2.052       .  S
N659        N660   1.320       .  A
N659        C663   1.361       .  A
N660        C661   1.338       .  A
C661        C662   1.379       .  A
C661        H664   1.082       .  S
C662        C663   1.399       .  A
C663        H665   1.081       .  S
N666        N667   1.319       .  A
N666        C670   1.339       .  A
N667        C668   1.350       .  A
C668        C669   1.389       .  A
C668        H671   1.082       .  S
C669        C693   1.472   1_655  S
C669        C670   1.380       .  A
C670        H672   1.082       .  S
N673        N674   1.327       .  A
N673        C677   1.348       .  A
N673       Cu681   2.069       .  S
N674        C675   1.352       .  A
N674       Cu680   2.142       .  S
C675        C676   1.394       .  A
C675        H678   1.082       .  S
C676       C1367   1.491       .  S
C676        C677   1.377       .  A
C677        H679   1.082       .  S
Cu680       N683   2.138       .  S
Cu681       N691   2.067       .  S
Cu682       N684   2.056       .  S
Cu682       N690   2.057       .  S
N683        N684   1.323       .  A
N683        C687   1.361       .  A
N684        C685   1.339       .  A
C685        C686   1.377       .  A
C685        H688   1.081       .  S
C686        C687   1.400       .  A
C687        H689   1.081       .  S
N690        N691   1.318       .  A
N690        C694   1.341       .  A
N691        C692   1.348       .  A
C692        C693   1.386       .  A
C692        H695   1.082       .  S
C693        C694   1.383       .  A
C694        H696   1.082       .  S
N697        N698   1.328       .  A
N697        C701   1.348       .  A
N697       Cu705   2.072       .  S
N698        C699   1.353       .  A
N698       Cu704   2.142       .  S
C699        C700   1.393       .  A
C699        H702   1.082       .  S
C700       C1301   1.490       .  S
C700        C701   1.377       .  A
C701        H703   1.082       .  S
Cu704       N707   2.138       .  S
Cu705       N715   2.070       .  S
Cu706       N708   2.063       .  S
Cu706       N714   2.063       .  S
N707        N708   1.323       .  A
N707        C711   1.362       .  A
N708        C709   1.340       .  A
C709        C710   1.379       .  A
C709        H712   1.082       .  S
C710        C711   1.400       .  A
C711        H713   1.081       .  S
N714        N715   1.319       .  A
N714        C718   1.341       .  A
N715        C716   1.348       .  A
C716        C717   1.386       .  A
C716        H719   1.082       .  S
C717        C741   1.474   1_556  S
C717        C718   1.384       .  A
C718        H720   1.082       .  S
N721        N722   1.328       .  A
N721        C725   1.350       .  A
N721       Cu729   2.086       .  S
N722        C723   1.348       .  A
N722       Cu728   2.122       .  S
C723        C724   1.387       .  A
C723        H726   1.082       .  S
C724       C1363   1.486       .  S
C724        C725   1.381       .  A
C725        H727   1.082       .  S
Cu728       N731   2.119       .  S
Cu729       N739   2.084       .  S
Cu730       N732   2.056       .  S
Cu730       N738   2.056       .  S
N731        N732   1.320       .  A
N731        C735   1.360       .  A
N732        C733   1.338       .  A
C733        C734   1.380       .  A
C733        H736   1.081       .  S
C734        C735   1.398       .  A
C735        H737   1.081       .  S
N738        N739   1.320       .  A
N738        C742   1.340       .  A
N739        C740   1.350       .  A
C740        C741   1.389       .  A
C740        H743   1.082       .  S
C741        C742   1.380       .  A
C742        H744   1.082       .  S
N745        N746   1.327       .  A
N745        C749   1.346       .  A
N745       Cu753   2.065       .  S
N746        C747   1.349       .  A
N746       Cu752   2.121       .  S
C747        C748   1.388       .  A
C747        H750   1.082       .  S
C748       C1368   1.481       .  S
C748        C749   1.375       .  A
C749        H751   1.082       .  S
Cu752       N755   2.118       .  S
Cu753       N763   2.063       .  S
Cu754       N756   2.058       .  S
Cu754       N762   2.058       .  S
N755        N756   1.322       .  A
N755        C759   1.359       .  A
N756        C757   1.338       .  A
C757        C758   1.379       .  A
C757        H760   1.082       .  S
C758        C759   1.396       .  A
C759        H761   1.081       .  S
N762        N763   1.319       .  A
N762        C766   1.340       .  A
N763        C764   1.347       .  A
C764        C765   1.384       .  A
C764        H767   1.082       .  S
C765        C789   1.469       .  S
C765        C766   1.382       .  A
C766        H768   1.082       .  S
N769        N770   1.329       .  A
N769        C773   1.350       .  A
N769       Cu777   2.082       .  S
N770        C771   1.350       .  A
N770       Cu776   2.137       .  S
C771        C772   1.390       .  A
C771        H774   1.082       .  S
C772       C1304   1.488       .  S
C772        C773   1.379       .  A
C773        H775   1.082       .  S
Cu776       N779   2.132       .  S
Cu777       N787   2.078       .  S
Cu778       N780   2.051       .  S
Cu778       N786   2.050       .  S
N779        N780   1.320       .  A
N779        C783   1.363       .  A
N780        C781   1.337       .  A
C781        C782   1.380       .  A
C781        H784   1.082       .  S
C782        C783   1.401       .  A
C783        H785   1.081       .  S
N786        N787   1.319       .  A
N786        C790   1.339       .  A
N787        C788   1.349       .  A
C788        C789   1.388       .  A
C788        H791   1.082       .  S
C789        C790   1.379       .  A
C790        H792   1.082       .  S
N793        N794   1.328       .  A
N793        C797   1.352       .  A
N793       Cu801   2.090       .  S
N794        C795   1.350       .  A
N794       Cu800   2.132       .  S
C795        C796   1.389       .  A
C795        H798   1.082       .  S
C796       C1364   1.493       .  S
C796        C797   1.382       .  A
C797        H799   1.082       .  S
Cu800       N803   2.129       .  S
Cu801       N811   2.087       .  S
Cu802       N804   2.067       .  S
Cu802       N810   2.065   1_565  S
N803        N804   1.321   1_545  A
N803        C807   1.361   1_545  A
N804        C805   1.340       .  A
C805        C806   1.382       .  A
C805        H808   1.082       .  S
C806        C807   1.399       .  A
C807        H809   1.081       .  S
N810        N811   1.321       .  A
N810        C814   1.341       .  A
N811        C812   1.350       .  A
C812        C813   1.389       .  A
C812        H815   1.082       .  S
C813        C837   1.475       .  S
C813        C814   1.381       .  A
C814        H816   1.082   1_545  S
N817        N818   1.328       .  A
N817        C821   1.347       .  A
N817       Cu825   2.071       .  S
N818        C819   1.349       .  A
N818       Cu824   2.127       .  S
C819        C820   1.389       .  A
C819        H822   1.082       .  S
C820       C1314   1.483       .  S
C820        C821   1.376       .  A
C821        H823   1.082       .  S
Cu824       N827   2.123   1_545  S
Cu825       N835   2.070       .  S
Cu826       N828   2.068       .  S
Cu826       N834   2.068   1_565  S
N827        N828   1.322       .  A
N827        C831   1.361       .  A
N828        C829   1.339       .  A
C829        C830   1.381       .  A
C829        H832   1.082       .  S
C830        C831   1.398       .  A
C831        H833   1.081       .  S
N834        N835   1.319       .  A
N834        C838   1.342       .  A
N835        C836   1.349       .  A
C836        C837   1.387       .  A
C836        H839   1.082       .  S
C837        C838   1.384       .  A
C838        H840   1.082   1_545  S
N841        N842   1.329       .  A
N841        C845   1.350       .  A
N841       Cu849   2.077       .  S
N842        C843   1.350       .  A
N842       Cu848   2.139       .  S
C843        C844   1.390       .  A
C843        H846   1.082       .  S
C844       C1302   1.487       .  S
C844        C845   1.377       .  A
C845        H847   1.082       .  S
Cu848       N851   2.135       .  S
Cu849       N859   2.074       .  S
Cu850       N852   2.054       .  S
Cu850       N858   2.054       .  S
N851        N852   1.321       .  A
N851        C855   1.363   1_545  A
N852        C853   1.338       .  A
C853        C854   1.379   1_545  A
C853        H856   1.081   1_545  S
C854        C855   1.402       .  A
C855        H857   1.081       .  S
N858        N859   1.319       .  A
N858        C862   1.339       .  A
N859        C860   1.349       .  A
C860        C861   1.387       .  A
C860        H863   1.082       .  S
C861        C885   1.470       .  S
C861        C862   1.380       .  A
C862        H864   1.082       .  S
N865        N866   1.329       .  A
N865        C869   1.346       .  A
N865       Cu873   2.063       .  S
N866        C867   1.350       .  A
N866       Cu872   2.137       .  S
C867        C868   1.390       .  A
C867        H870   1.082       .  S
C868       C1243   1.481       .  S
C868        C869   1.373       .  A
C869        H871   1.082       .  S
Cu872       N875   2.133       .  S
Cu873       N883   2.060       .  S
Cu874       N876   2.057       .  S
Cu874       N882   2.058       .  S
N875        N876   1.321       .  A
N875        C879   1.363   1_545  A
N876        C877   1.338   1_545  A
C877        C878   1.379       .  A
C877        H880   1.081       .  S
C878        C879   1.402       .  A
C879        H881   1.081       .  S
N882        N883   1.318       .  A
N882        C886   1.340       .  A
N883        C884   1.348       .  A
C884        C885   1.386       .  A
C884        H887   1.082       .  S
C885        C886   1.382       .  A
C886        H888   1.082       .  S
N889        N890   1.330       .  A
N889        C893   1.349       .  A
N889       Cu897   2.078       .  S
N890        C891   1.351       .  A
N890       Cu896   2.142       .  S
C891        C892   1.390       .  A
C891        H894   1.082       .  S
C892       C1306   1.488       .  S
C892        C893   1.377       .  A
C893        H895   1.082       .  S
Cu896       N899   2.137       .  S
Cu897       N907   2.074       .  S
Cu898       N900   2.052       .  S
Cu898       N906   2.053       .  S
N899        N900   1.321       .  A
N899        C903   1.363       .  A
N900        C901   1.337       .  A
C901        C902   1.378       .  A
C901        H904   1.081       .  S
C902        C903   1.403       .  A
C903        H905   1.081       .  S
N906        N907   1.319       .  A
N906        C910   1.340       .  A
N907        C908   1.349       .  A
C908        C909   1.388       .  A
C908        H911   1.082       .  S
C909        C933   1.471       .  S
C909        C910   1.381       .  A
C910        H912   1.082       .  S
N913        N914   1.329       .  A
N913        C917   1.348       .  A
N913       Cu921   2.070       .  S
N914        C915   1.349       .  A
N914       Cu920   2.133       .  S
C915        C916   1.389       .  A
C915        H918   1.082       .  S
C916       C1238   1.483       .  S
C916        C917   1.376       .  A
C917        H919   1.082       .  S
Cu920       N923   2.130       .  S
Cu921       N931   2.067       .  S
Cu922       N924   2.058       .  S
Cu922       N930   2.059       .  S
N923        N924   1.321       .  A
N923        C927   1.362       .  A
N924        C925   1.338       .  A
C925        C926   1.379       .  A
C925        H928   1.081       .  S
C926        C927   1.401       .  A
C927        H929   1.081       .  S
N930        N931   1.319       .  A
N930        C934   1.340       .  A
N931        C932   1.348       .  A
C932        C933   1.386       .  A
C932        H935   1.082       .  S
C933        C934   1.382       .  A
C934        H936   1.082       .  S
N937        N938   1.326       .  A
N937        C941   1.348       .  A
N937       Cu945   2.067       .  S
N938        C939   1.349       .  A
N938       Cu944   2.127       .  S
C939        C940   1.391       .  A
C939        H942   1.082       .  S
C940       C1312   1.486       .  S
C940        C941   1.379       .  A
C941        H943   1.082       .  S
Cu944       N947   2.125       .  S
Cu945       N955   2.065       .  S
Cu946       N948   2.066       .  S
Cu946       N954   2.067       .  S
N947        N948   1.323       .  A
N947        C951   1.361       .  A
N948        C949   1.338       .  A
C949        C950   1.379       .  A
C949        H952   1.082       .  S
C950        C951   1.398       .  A
C951        H953   1.081       .  S
N954        N955   1.320       .  A
N954        C958   1.344       .  A
N955        C956   1.345       .  A
C956        C957   1.383       .  A
C956        H959   1.082       .  S
C957        C981   1.471       .  S
C957        C958   1.384       .  A
C958        H960   1.082       .  S
N961        N962   1.329       .  A
N961        C965   1.350       .  A
N961       Cu969   2.080       .  S
N962        C963   1.350       .  A
N962       Cu968   2.138       .  S
C963        C964   1.390       .  A
C963        H966   1.082       .  S
C964       C1242   1.488       .  S
C964        C965   1.379       .  A
C965        H967   1.082       .  S
Cu968       N971   2.133       .  S
Cu969       N979   2.077       .  S
Cu970       N972   2.047       .  S
Cu970       N978   2.050       .  S
N971        N972   1.321       .  A
N971        C975   1.363       .  A
N972        C973   1.335       .  A
C973        C974   1.376       .  A
C973        H976   1.082       .  S
C974        C975   1.401       .  A
C975        H977   1.081       .  S
N978        N979   1.318       .  A
N978        C982   1.342       .  A
N979        C980   1.347       .  A
C980        C981   1.387       .  A
C980        H983   1.082       .  S
C981        C982   1.381       .  A
C982        H984   1.082       .  S
N985        N986   1.330       .  A
N985        C989   1.349       .  A
N985       Cu993   2.078       .  S
N986        C987   1.349       .  A
N986       Cu992   2.136       .  S
C987        C988   1.388       .  A
C987        H990   1.082       .  S
C988       C1310   1.485       .  S
C988        C989   1.378       .  A
C989        H991   1.082       .  S
Cu992       N995   2.132       .  S
Cu993      N1003   2.075       .  S
Cu994       N996   2.055       .  S
Cu994      N1002   2.055       .  S
N995        N996   1.320       .  A
N995        C999   1.364   1_545  A
N996        C997   1.337       .  A
C997        C998   1.379   1_545  A
C997       H1000   1.081       .  S
C998        C999   1.402       .  A
C999       H1001   1.081       .  S
N1002      N1003   1.319       .  A
N1002      C1006   1.339       .  A
N1003      C1004   1.350       .  A
C1004      C1005   1.388       .  A
C1004      H1007   1.082       .  S
C1005      C1029   1.473       .  S
C1005      C1006   1.381       .  A
C1006      H1008   1.082       .  S
N1009      N1010   1.328       .  A
N1009      C1013   1.349       .  A
N1009     Cu1017   2.077       .  S
N1010      C1011   1.350       .  A
N1010     Cu1016   2.127       .  S
C1011      C1012   1.389       .  A
C1011      H1014   1.082       .  S
C1012      C1245   1.488       .  S
C1012      C1013   1.379       .  A
C1013      H1015   1.082       .  S
Cu1016     N1019   2.123       .  S
Cu1017     N1027   2.074       .  S
Cu1018     N1020   2.063       .  S
Cu1018     N1026   2.063       .  S
N1019      N1020   1.322       .  A
N1019      C1023   1.360   1_545  A
N1020      C1021   1.340   1_545  A
C1021      C1022   1.381       .  A
C1021      H1024   1.082       .  S
C1022      C1023   1.397       .  A
C1023      H1025   1.081       .  S
N1026      N1027   1.320       .  A
N1026      C1030   1.340       .  A
N1027      C1028   1.349       .  A
C1028      C1029   1.386       .  A
C1028      H1031   1.082       .  S
C1029      C1030   1.382       .  A
C1030      H1032   1.082       .  S
N1033      N1034   1.328       .  A
N1033      C1037   1.347       .  A
N1033     Cu1041   2.064       .  S
N1034      C1035   1.350       .  A
N1034     Cu1040   2.138       .  S
C1035      C1036   1.391       .  A
C1035      H1038   1.082       .  S
C1036      C1308   1.485       .  S
C1036      C1037   1.376       .  A
C1037      H1039   1.082       .  S
Cu1040     N1043   2.135       .  S
Cu1041     N1051   2.062       .  S
Cu1042     N1044   2.060       .  S
Cu1042     N1050   2.059       .  S
N1043      N1044   1.321       .  A
N1043      C1047   1.362       .  A
N1044      C1045   1.339       .  A
C1045      C1046   1.381       .  A
C1045      H1048   1.082       .  S
C1046      C1047   1.401       .  A
C1047      H1049   1.081       .  S
N1050      N1051   1.319       .  A
N1050      C1054   1.339       .  A
N1051      C1052   1.347       .  A
C1052      C1053   1.385       .  A
C1052      H1055   1.082       .  S
C1053      C1077   1.468       .  S
C1053      C1054   1.381       .  A
C1054      H1056   1.082       .  S
N1057      N1058   1.328       .  A
N1057      C1061   1.349       .  A
N1057     Cu1065   2.075       .  S
N1058      C1059   1.350       .  A
N1058     Cu1064   2.135       .  S
C1059      C1060   1.390       .  A
C1059      H1062   1.082       .  S
C1060      C1230   1.487       .  S
C1060      C1061   1.378       .  A
C1061      H1063   1.082       .  S
Cu1064     N1067   2.131       .  S
Cu1065     N1075   2.071       .  S
Cu1066     N1068   2.051       .  S
Cu1066     N1074   2.051       .  S
N1067      N1068   1.321       .  A
N1067      C1071   1.361       .  A
N1068      C1069   1.338       .  A
C1069      C1070   1.378       .  A
C1069      H1072   1.082       .  S
C1070      C1071   1.400       .  A
C1071      H1073   1.081       .  S
N1074      N1075   1.319       .  A
N1074      C1078   1.339       .  A
N1075      C1076   1.348       .  A
C1076      C1077   1.386       .  A
C1076      H1079   1.082       .  S
C1077      C1078   1.380       .  A
C1078      H1080   1.082       .  S
N1081      N1082   1.328       .  A
N1081      C1085   1.349       .  A
N1081     Cu1089   2.077       .  S
N1082      C1083   1.350       .  A
N1082     Cu1088   2.134       .  S
C1083      C1084   1.390       .  A
C1083      H1086   1.082       .  S
C1084      C1247   1.488       .  S
C1084      C1085   1.379       .  A
C1085      H1087   1.082       .  S
Cu1088     N1091   2.130       .  S
Cu1089     N1099   2.075       .  S
Cu1090     N1092   2.062       .  S
Cu1090     N1098   2.063       .  S
N1091      N1092   1.322       .  A
N1091      C1095   1.362       .  A
N1092      C1093   1.339       .  A
C1093      C1094   1.380       .  A
C1093      H1096   1.082       .  S
C1094      C1095   1.399       .  A
C1095      H1097   1.081       .  S
N1098      N1099   1.320       .  A
N1098      C1102   1.341       .  A
N1099      C1100   1.349       .  A
C1100      C1101   1.387       .  A
C1100      H1103   1.082       .  S
C1101      C1125   1.475       .  S
C1101      C1102   1.383       .  A
C1102      H1104   1.082       .  S
N1105      N1106   1.329       .  A
N1105      C1109   1.350       .  A
N1105     Cu1113   2.088       .  S
N1106      C1107   1.349       .  A
N1106     Cu1112   2.124       .  S
C1107      C1108   1.387       .  A
C1107      H1110   1.082       .  S
C1108      C1234   1.489       .  S
C1108      C1109   1.381       .  A
C1109      H1111   1.082       .  S
Cu1112     N1115   2.120       .  S
Cu1113     N1123   2.084       .  S
Cu1114     N1116   2.065       .  S
Cu1114     N1122   2.065       .  S
N1115      N1116   1.321       .  A
N1115      C1119   1.361       .  A
N1116      C1117   1.339       .  A
C1117      C1118   1.382       .  A
C1117      H1120   1.082       .  S
C1118      C1119   1.398       .  A
C1119      H1121   1.081       .  S
N1122      N1123   1.321       .  A
N1122      C1126   1.341       .  A
N1123      C1124   1.350       .  A
C1124      C1125   1.388       .  A
C1124      H1127   1.082       .  S
C1125      C1126   1.382       .  A
C1126      H1128   1.082       .  S
N1129      N1130   1.328       .  A
N1129      C1133   1.348       .  A
N1129     Cu1137   2.071       .  S
N1130      C1131   1.352       .  A
N1130     Cu1136   2.140       .  S
C1131      C1132   1.393       .  A
C1131      H1134   1.082       .  S
C1132      C1240   1.488       .  S
C1132      C1133   1.376       .  A
C1133      H1135   1.082       .  S
Cu1136     N1139   2.136       .  S
Cu1137     N1147   2.069       .  S
Cu1138     N1140   2.066       .  S
Cu1138     N1146   2.065       .  S
N1139      N1140   1.323       .  A
N1139      C1143   1.362       .  A
N1140      C1141   1.340       .  A
C1141      C1142   1.380       .  A
C1141      H1144   1.082       .  S
C1142      C1143   1.400       .  A
C1143      H1145   1.081       .  S
N1146      N1147   1.319       .  A
N1146      C1150   1.342       .  A
N1147      C1148   1.348       .  A
C1148      C1149   1.386       .  A
C1148      H1151   1.082       .  S
C1149      C1173   1.473       .  S
C1149      C1150   1.384       .  A
C1150      H1152   1.082       .  S
N1153      N1154   1.328       .  A
N1153      C1157   1.349       .  A
N1153     Cu1161   2.078       .  S
N1154      C1155   1.349       .  A
N1154     Cu1160   2.123       .  S
C1155      C1156   1.388       .  A
C1155      H1158   1.082       .  S
C1156      C1236   1.485       .  S
C1156      C1157   1.378       .  A
C1157      H1159   1.082       .  S
Cu1160     N1163   2.120       .  S
Cu1161     N1171   2.076       .  S
Cu1162     N1164   2.060       .  S
Cu1162     N1170   2.059       .  S
N1163      N1164   1.321       .  A
N1163      C1167   1.359       .  A
N1164      C1165   1.339       .  A
C1165      C1166   1.379       .  A
C1165      H1168   1.081       .  S
C1166      C1167   1.397       .  A
C1167      H1169   1.081       .  S
N1170      N1171   1.319       .  A
N1170      C1174   1.341       .  A
N1171      C1172   1.349       .  A
C1172      C1173   1.388       .  A
C1172      H1175   1.082       .  S
C1173      C1174   1.381       .  A
C1174      H1176   1.082       .  S
N1177      N1178   1.328       .  A
N1177      C1181   1.348       .  A
N1177     Cu1185   2.071       .  S
N1178      C1179   1.350       .  A
N1178     Cu1184   2.134       .  S
C1179      C1180   1.390       .  A
C1179      H1182   1.082       .  S
C1180      C1228   1.485       .  S
C1180      C1181   1.377       .  A
C1181      H1183   1.082       .  S
Cu1184     N1187   2.131       .  S
Cu1185     N1195   2.069       .  S
Cu1186     N1188   2.072       .  S
Cu1186     N1194   2.072       .  S
N1187      N1188   1.322       .  A
N1187      C1191   1.362       .  A
N1188      C1189   1.341       .  A
C1189      C1190   1.383       .  A
C1189      H1192   1.081       .  S
C1190      C1191   1.400       .  A
C1191      H1193   1.081       .  S
N1194      N1195   1.320       .  A
N1194      C1198   1.342       .  A
N1195      C1196   1.348       .  A
C1196      C1197   1.386       .  A
C1196      H1199   1.082       .  S
C1197      C1221   1.474       .  S
C1197      C1198   1.383       .  A
C1198      H1200   1.082       .  S
N1201      N1202   1.328       .  A
N1201      C1205   1.350       .  A
N1201     Cu1209   2.081       .  S
N1202      C1203   1.351       .  A
N1202     Cu1208   2.133       .  S
C1203      C1204   1.391       .  A
C1203      H1206   1.082       .  S
C1204      C1232   1.492       .  S
C1204      C1205   1.380       .  A
C1205      H1207   1.082       .  S
Cu1208     N1211   2.130       .  S
Cu1209     N1219   2.079       .  S
Cu1210     N1212   2.063       .  S
Cu1210     N1218   2.062       .  S
N1211      N1212   1.322       .  A
N1211      C1215   1.361       .  A
N1212      C1213   1.340       .  A
C1213      C1214   1.380       .  A
C1213      H1216   1.082       .  S
C1214      C1215   1.398       .  A
C1215      H1217   1.081       .  S
N1218      N1219   1.320       .  A
N1218      C1222   1.342       .  A
N1219      C1220   1.349       .  A
C1220      C1221   1.387       .  A
C1220      H1223   1.082       .  S
C1221      C1222   1.382       .  A
C1222      H1224   1.082       .  S
C1225      C1226   1.415       .  A
C1225      C1230   1.415       .  A
C1226      C1276   1.485       .  S
C1226      C1227   1.413       .  A
C1227      C1228   1.415       .  A
C1228      C1229   1.418       .  A
C1229      C1230   1.415       .  A
C1231      C1232   1.416       .  A
C1231      C1236   1.418       .  A
C1232      C1233   1.413       .  A
C1233      C1234   1.415       .  A
C1234      C1235   1.412       .  A
C1235      C1236   1.413       .  A
C1237      C1238   1.413       .  A
C1237      C1242   1.414       .  A
C1238      C1239   1.411       .  A
C1239      C1240   1.413       .  A
C1240      C1241   1.416       .  A
C1241      C1242   1.415       .  A
C1243      C1244   1.412       .  A
C1243      C1248   1.418       .  A
C1244      C1245   1.411       .  A
C1245      C1246   1.418       .  A
C1246      C1247   1.415       .  A
C1247      C1248   1.414       .  A
N1249      N1250   1.328       .  A
N1249      C1253   1.349       .  A
N1249     Cu1257   2.072       .  S
N1250      C1251   1.349       .  A
N1250     Cu1256   2.130       .  S
C1251      C1252   1.389       .  A
C1251      H1254   1.082       .  S
C1252      C1300   1.485       .  S
C1252      C1253   1.377       .  A
C1253      H1255   1.082       .  S
Cu1256     N1259   2.126       .  S
Cu1257     N1267   2.071       .  S
Cu1258     N1260   2.053       .  S
Cu1258     N1266   2.052       .  S
N1259      N1260   1.321       .  A
N1259      C1263   1.359       .  A
N1260      C1261   1.339       .  A
C1261      C1262   1.379       .  A
C1261      H1264   1.082       .  S
C1262      C1263   1.398       .  A
C1263      H1265   1.081       .  S
N1266      N1267   1.320       .  A
N1266      C1270   1.340       .  A
N1267      C1268   1.347       .  A
C1268      C1269   1.385       .  A
C1268      H1271   1.082       .  S
C1269      C1293   1.467       .  S
C1269      C1270   1.380       .  A
C1270      H1272   1.082       .  S
N1273      N1274   1.327       .  A
N1273      C1277   1.348       .  A
N1273     Cu1281   2.065       .  S
N1274      C1275   1.350       .  A
N1274     Cu1280   2.135       .  S
C1275      C1276   1.391       .  A
C1275      H1278   1.082       .  S
C1276      C1277   1.376       .  A
C1277      H1279   1.082       .  S
Cu1280     N1283   2.132       .  S
Cu1281     N1291   2.063       .  S
Cu1282     N1284   2.055       .  S
Cu1282     N1290   2.056       .  S
N1283      N1284   1.322       .  A
N1283      C1287   1.361       .  A
N1284      C1285   1.338       .  A
C1285      C1286   1.378       .  A
C1285      H1288   1.082       .  S
C1286      C1287   1.399       .  A
C1287      H1289   1.081       .  S
N1290      N1291   1.319       .  A
N1290      C1294   1.341       .  A
N1291      C1292   1.346       .  A
C1292      C1293   1.384       .  A
C1292      H1295   1.082       .  S
C1293      C1294   1.382       .  A
C1294      H1296   1.082       .  S
C1297      C1298   1.412       .  A
C1297      C1302   1.411       .  A
C1298      C1342   1.484       .  S
C1298      C1299   1.413       .  A
C1299      C1300   1.416       .  A
C1300      C1301   1.418       .  A
C1301      C1302   1.415       .  A
C1303      C1304   1.416       .  A
C1303      C1308   1.417       .  A
C1304      C1305   1.417       .  A
C1305      C1306   1.417       .  A
C1306      C1307   1.412       .  A
C1307      C1308   1.412       .  A
C1309      C1310   1.413       .  A
C1309      C1314   1.416       .  A
C1310      C1311   1.416       .  A
C1311      C1312   1.417       .  A
C1312      C1313   1.413       .  A
C1313      C1314   1.416       .  A
N1315      N1316   1.328       .  A
N1315      C1319   1.350       .  A
N1315     Cu1323   2.075       .  S
N1316      C1317   1.351       .  A
N1316     Cu1322   2.140       .  S
C1317      C1318   1.392       .  A
C1317      H1320   1.082       .  S
C1318      C1366   1.490       .  S
C1318      C1319   1.378       .  A
C1319      H1321   1.082       .  S
Cu1322     N1325   2.136       .  S
Cu1323     N1333   2.073       .  S
Cu1324     N1326   2.053   1_545  S
Cu1324     N1332   2.053       .  S
N1325      N1326   1.321   1_545  A
N1325      C1329   1.362   1_545  A
N1326      C1327   1.338       .  A
C1327      C1328   1.378       .  A
C1327      H1330   1.082       .  S
C1328      C1329   1.401       .  A
C1329      H1331   1.081       .  S
N1332      N1333   1.319       .  A
N1332      C1336   1.340       .  A
N1333      C1334   1.348       .  A
C1334      C1335   1.387       .  A
C1334      H1337   1.082       .  S
C1335      C1359   1.469       .  S
C1335      C1336   1.380       .  A
C1336      H1338   1.082   1_545  S
N1339      N1340   1.328       .  A
N1339      C1343   1.346       .  A
N1339     Cu1347   2.063       .  S
N1340      C1341   1.351       .  A
N1340     Cu1346   2.138       .  S
C1341      C1342   1.392       .  A
C1341      H1344   1.082       .  S
C1342      C1343   1.373       .  A
C1343      H1345   1.082       .  S
Cu1346     N1349   2.133   1_545  S
Cu1347     N1357   2.062       .  S
Cu1348     N1350   2.053       .  S
Cu1348     N1356   2.054   1_565  S
N1349      N1350   1.322       .  A
N1349      C1353   1.361       .  A
N1350      C1351   1.338       .  A
C1351      C1352   1.377       .  A
C1351      H1354   1.082       .  S
C1352      C1353   1.400       .  A
C1353      H1355   1.081       .  S
N1356      N1357   1.318       .  A
N1356      C1360   1.340       .  A
N1357      C1358   1.347       .  A
C1358      C1359   1.385       .  A
C1358      H1361   1.082       .  S
C1359      C1360   1.382       .  A
C1360      H1362   1.082   1_545  S
C1363      C1364   1.411       .  A
C1363      C1368   1.415       .  A
C1364      C1365   1.415       .  A
C1365      C1366   1.416       .  A
C1366      C1367   1.410       .  A
C1367      C1368   1.416       .  A
