geometry optimzed in LAMMPS
_audit_creation_date              2020-11-30 
_audit_creation_method            'lammps2cif' 
_symmetry_space_group_name_H-M    'P1' 
_symmetry_Int_Tables_number       1 
_symmetry_cell_setting            triclinic 
loop_ 
_symmetry_equiv_pos_as_xyz 
  x,y,z 
_cell_length_a                    37.48045430741555 
_cell_length_b                    56.8984233107189 
_cell_length_c                    27.442244454273997 
_cell_angle_alpha                 90.36929267582043 
_cell_angle_beta                  90.06207503821408 
_cell_angle_gamma                 89.97429770503926 
loop_ 
_atom_site_label 
_atom_site_type_symbol 
_atom_site_fract_x 
_atom_site_fract_y 
_atom_site_fract_z 
_atom_site_charge 
N1          N  0.80795650  0.10154533  0.19215590    -0.27430
N2          N  0.79464978  0.08172109  0.20926052    -0.35290
C3          C  0.81504269  0.06368947  0.19367521     0.00910
C4          C  0.84270597  0.07264212  0.16596249     0.06930
C5          C  0.83696971  0.09666465  0.16524656    -0.06170
H6          H  0.81022998  0.04541605  0.20213629     0.07600
H7          H  0.85208924  0.10971196  0.14567066     0.08800
Cu8        Cu  0.74907014  0.08014682  0.25235600     0.44170
Cu9        Cu  0.78719391  0.13469053  0.20616357     0.41990
Cu10       Cu  0.70731445  0.13651229  0.27738404     0.43880
N11         N  0.70203773  0.08416948  0.29180467    -0.34820
N12         N  0.68653608  0.10473720  0.29967957    -0.29070
C13         C  0.65693863  0.10156400  0.32644722    -0.05170
C14         C  0.65366231  0.07789517  0.33587077     0.07040
C15         C  0.68276737  0.06734632  0.31382366     0.00840
H16         H  0.63982355  0.11554893  0.33955007     0.08490
H17         H  0.68977634  0.04890325  0.31454121     0.07570
N18         N  0.73349362  0.16634858  0.25423053    -0.36270
N19         N  0.76285509  0.16579145  0.22769162    -0.28450
C20         C  0.77279837  0.18796316  0.21778490    -0.03690
C21         C  0.74873504  0.20318283  0.23972149     0.04920
C22         C  0.72396001  0.18882189  0.26206395     0.03010
H23         H  0.79568511  0.19267186  0.19593238     0.08120
H24         H  0.69996344  0.19415247  0.28093552     0.06950
O25         O  0.96354514  0.00135954  0.07700664    -0.73090
O26         O  0.04039003  0.96838707  0.00090174    -0.74070
O27         O  0.03978917  0.00164787  0.07856106    -0.62690
O28         O  0.96449993  0.96849901  0.99899197    -0.71100
O29         O  0.96524468  0.99771634  0.94636921    -0.70650
O30         O  0.03983244  0.03078485  0.02521251    -0.61900
O31         O  0.04082465  0.99761041  0.94756430    -0.74410
O32         O  0.96445533  0.03073209  0.02405030    -0.73190
Cu33       Cu  0.00206252  0.98393514  0.04078380     1.04560
Cu34       Cu  0.00262373  0.01519983  0.98396478     1.04330
C35         C  0.95187768  0.02118263  0.06233896     0.93110
C36         C  0.05255144  0.97780298  0.96223434     0.92250
C37         C  0.05148860  0.02158943  0.06441602     0.84390
C38         C  0.95273061  0.97797622  0.95997379     0.90670
N39         N  0.30994132  0.10552462  0.32196554    -0.27430
N40         N  0.29592333  0.08485598  0.31095139    -0.35290
C41         C  0.31549151  0.06788648  0.33195844     0.00910
C42         C  0.34276256  0.07845040  0.35807030     0.06930
C43         C  0.33864166  0.10230719  0.35056860    -0.06170
H44         H  0.31023083  0.04925035  0.32856178     0.07600
H45         H  0.35569713  0.11628809  0.36378969     0.08800
Cu46       Cu  0.25107625  0.08091127  0.26757741     0.44170
Cu47       Cu  0.28974546  0.13705944  0.29685803     0.41990
Cu48       Cu  0.21525662  0.13415827  0.21289608     0.43880
N49         N  0.20797029  0.08139035  0.22037793    -0.34820
N50         N  0.19588188  0.10049204  0.19887959    -0.29070
C51         C  0.16862572  0.09445632  0.16952868    -0.05170
C52         C  0.16283978  0.07032823  0.17273324     0.07040
C53         C  0.18839024  0.06282616  0.20596211     0.00840
H54         H  0.15403194  0.10689422  0.14752445     0.08490
H55         H  0.19240395  0.04546360  0.22025999     0.07570
N56         N  0.23725875  0.16551854  0.23834507    -0.36270
N57         N  0.26436195  0.16639350  0.26917003    -0.28450
C58         C  0.27201326  0.18896711  0.27936691    -0.03690
C59         C  0.24832846  0.20308049  0.25424840     0.04920
C60         C  0.22695554  0.18762030  0.22811105     0.03010
H61         H  0.29382786  0.19457423  0.30244772     0.08120
H62         H  0.20531999  0.19212219  0.20376217     0.06950
N63         N  0.68974808  0.90389371  0.70287462    -0.27430
N64         N  0.70443091  0.92373080  0.71833507    -0.35290
C65         C  0.68473329  0.94190529  0.70240462     0.00910
C66         C  0.65608112  0.93301150  0.67648392     0.06930
C67         C  0.66013302  0.90890265  0.67723455    -0.06170
H68         H  0.69111131  0.96023037  0.70853856     0.07600
H69         H  0.64357447  0.89600210  0.65895912     0.08800
Cu70       Cu  0.75096473  0.92529594  0.75948176     0.44170
Cu71       Cu  0.71188053  0.87097577  0.71368108     0.41990
Cu72       Cu  0.79625091  0.86973096  0.77650173     0.43880
N73         N  0.79747800  0.92150647  0.79997190    -0.34820
N74         N  0.81436232  0.90128337  0.80485938    -0.29070
C75         C  0.84365597  0.90457252  0.83228258    -0.05170
C76         C  0.84508981  0.92797643  0.84650791     0.07040
C77         C  0.81546474  0.93818766  0.82474145     0.00840
H78         H  0.86270745  0.89086696  0.83984774     0.08490
H79         H  0.80741615  0.95642652  0.82698089     0.07570
N80         N  0.77101914  0.83995584  0.75012499    -0.36270
N81         N  0.74014730  0.84038380  0.72684700    -0.28450
C82         C  0.73073260  0.81826633  0.71505462    -0.03690
C83         C  0.75705831  0.80323985  0.73162701     0.04920
C84         C  0.78197338  0.81755955  0.75413657     0.03010
H85         H  0.70603862  0.81350956  0.69714356     0.08120
H86         H  0.80622905  0.81209331  0.77223356     0.06950
O87         O  0.46731929  0.03969318  0.50219747    -0.73090
O88         O  0.54283250  0.00582418  0.57963464    -0.74070
O89         O  0.54313496  0.03998208  0.50301352    -0.62690
O90         O  0.46712813  0.00625835  0.57866267    -0.71100
O91         O  0.46793701  0.97720866  0.52493443    -0.70650
O92         O  0.54233475  0.01147530  0.44741602    -0.61900
O93         O  0.54371418  0.97751407  0.52354568    -0.74410
O94         O  0.46709587  0.01046220  0.44872569    -0.73190
Cu95       Cu  0.50519906  0.02395585  0.54282082     1.04560
Cu96       Cu  0.50537048  0.99317265  0.48432702     1.04330
C97         C  0.45511830  0.03030445  0.46307841     0.93110
C98         C  0.55484881  0.98618245  0.56377039     0.92250
C99         C  0.55419681  0.03123901  0.46277575     0.84390
C100        C  0.45526887  0.98642372  0.56391737     0.90670
N101        N  0.31555061  0.90605620  0.70584754    -0.27430
N102        N  0.29899880  0.92606866  0.71523867    -0.35290
C103        C  0.31700216  0.94363901  0.69366871     0.00910
C104        C  0.34620728  0.93419421  0.66923993     0.06930
C105        C  0.34455837  0.91031758  0.67865224    -0.06170
H106        H  0.30932406  0.96195662  0.69547207     0.07600
H107        H  0.36334956  0.89688977  0.66797813     0.08800
Cu108      Cu  0.25320513  0.92801526  0.75802692     0.44170
Cu109      Cu  0.29740898  0.87347943  0.72772305     0.41990
Cu110      Cu  0.21403661  0.87139278  0.79166171     0.43880
N111        N  0.20882558  0.92422556  0.80295148    -0.34820
N112        N  0.19434510  0.90375865  0.81423606    -0.29070
C113        C  0.16604915  0.90750642  0.84337955    -0.05170
C114        C  0.16286793  0.93140551  0.85146680     0.07040
C115        C  0.19024607  0.94150173  0.82506221     0.00840
H116        H  0.14929458  0.89380832  0.85812833     0.08490
H117        H  0.19594503  0.96004465  0.82150262     0.07570
N118        N  0.24095852  0.84157433  0.76805039    -0.36270
N119        N  0.27186980  0.84244396  0.74507140    -0.28450
C120        C  0.28280745  0.82045807  0.73492897    -0.03690
C121        C  0.25734253  0.80492554  0.75190930     0.04920
C122        C  0.23139062  0.81894673  0.77323944     0.03010
H123        H  0.30794423  0.81623939  0.71774019     0.08120
H124        H  0.20730096  0.81311321  0.79116096     0.06950
N125        N  0.81901972  0.59969790  0.76916556    -0.27430
N126        N  0.80529671  0.58000282  0.75139467    -0.35290
C127        C  0.82416916  0.56167220  0.76846012     0.00910
C128        C  0.85082727  0.57032887  0.79843459     0.06930
C129        C  0.84665013  0.59442618  0.79838593    -0.06170
H130        H  0.81839661  0.54341326  0.76054822     0.07600
H131        H  0.86249382  0.60719765  0.81818429     0.08800
Cu132      Cu  0.76054911  0.57887622  0.70664276     0.44170
Cu133      Cu  0.80003774  0.63299664  0.75345337     0.41990
Cu134      Cu  0.72494076  0.63575034  0.67243991     0.43880
N135        N  0.71532333  0.58326606  0.66376154    -0.34820
N136        N  0.70296590  0.60405150  0.65070897    -0.29070
C137        C  0.67355490  0.60109355  0.62336759    -0.05170
C138        C  0.66647815  0.57727205  0.61967569     0.07040
C139        C  0.69384137  0.56649738  0.64523167     0.00840
H140        H  0.65904094  0.61535827  0.60679499     0.08490
H141        H  0.69758436  0.54782947  0.65050728     0.07570
N142        N  0.74845709  0.66518327  0.70314120    -0.36270
N143        N  0.77613417  0.66422039  0.73287734    -0.28450
C144        C  0.78503523  0.68616955  0.74664735    -0.03690
C145        C  0.76141207  0.70170362  0.72506383     0.04920
C146        C  0.73885761  0.68774348  0.69733168     0.03010
H147        H  0.80766924  0.69036356  0.76948117     0.08120
H148        H  0.71692849  0.69356120  0.67474313     0.06950
N149        N  0.80569733  0.40277086  0.15542536    -0.27430
N150        N  0.79124630  0.42310354  0.16788287    -0.35290
C151        C  0.81024904  0.44063047  0.14819729     0.00910
C152        C  0.83846794  0.43087038  0.12268759     0.06930
C153        C  0.83448377  0.40681047  0.12755715    -0.06170
H154        H  0.80334733  0.45900728  0.15149008     0.07600
H155        H  0.85145837  0.39325049  0.11233438     0.08800
Cu156      Cu  0.74671754  0.42614475  0.21139707     0.44170
Cu157      Cu  0.78518909  0.37071402  0.17693523     0.41990
Cu158      Cu  0.70296366  0.37225528  0.24727881     0.43880
N159        N  0.70140367  0.42514396  0.25372937    -0.34820
N160        N  0.68458602  0.40561926  0.26550888    -0.29070
C161        C  0.65599147  0.41123174  0.29266612    -0.05170
C162        C  0.65473242  0.43550805  0.29851744     0.07040
C163        C  0.68438641  0.44362073  0.27359492     0.00840
H164        H  0.63768577  0.39847645  0.30758889     0.08490
H165        H  0.69416017  0.46137938  0.27128961     0.07570
N166        N  0.72934622  0.34150399  0.22762245    -0.36270
N167        N  0.75921962  0.34107422  0.20203996    -0.28450
C168        C  0.76975479  0.31866890  0.19603988    -0.03690
C169        C  0.74519309  0.30422638  0.21853286     0.04920
C170        C  0.72017044  0.31931200  0.23870924     0.03010
H171        H  0.79413348  0.31344912  0.17795898     0.08120
H172        H  0.69702231  0.31450114  0.25994323     0.06950
N173        N  0.31911830  0.60477024  0.68248126    -0.27430
N174        N  0.30701368  0.58401595  0.69624587    -0.35290
C175        C  0.32646055  0.56714816  0.67414823     0.00910
C176        C  0.35221191  0.57783799  0.64563727     0.06930
C177        C  0.34633841  0.60167939  0.65135044    -0.06170
H178        H  0.32211753  0.54847426  0.67838034     0.07600
H179        H  0.35985548  0.61586757  0.63305023     0.08800
Cu180      Cu  0.26358157  0.57959015  0.74256419     0.44170
Cu181      Cu  0.29873689  0.63682392  0.70494184     0.41990
Cu182      Cu  0.21784460  0.63443663  0.77102421     0.43880
N183        N  0.21668239  0.58168126  0.78296835    -0.34820
N184        N  0.19957571  0.60163335  0.79082928    -0.29070
C185        C  0.16940483  0.59730535  0.81536951    -0.05170
C186        C  0.16744196  0.57344163  0.82493127     0.07040
C187        C  0.19790602  0.56410265  0.80321096     0.00840
H188        H  0.15021299  0.61077645  0.82400488     0.08490
H189        H  0.20588928  0.54583522  0.80211760     0.07570
N190        N  0.24326127  0.66570034  0.75561823    -0.36270
N191        N  0.27361591  0.66662147  0.73141685    -0.28450
C192        C  0.28361385  0.68919751  0.72718268    -0.03690
C193        C  0.25845247  0.70317151  0.75035871     0.04920
C194        C  0.23301742  0.68763358  0.76751185     0.03010
H195        H  0.30732102  0.69503651  0.70834395     0.08120
H196        H  0.20822911  0.69183014  0.78562858     0.06950
O197        O  0.96556618  0.52953204  0.95457518    -0.73090
O198        O  0.03804604  0.49599480  0.03542346    -0.74070
O199        O  0.04118579  0.52936092  0.95977927    -0.62690
O200        O  0.96273767  0.49598040  0.02964573    -0.71100
O201        O  0.96453538  0.46738122  0.97481091    -0.70650
O202        O  0.04336961  0.50081183  0.90487614    -0.61900
O203        O  0.04010160  0.46709090  0.98063859    -0.74410
O204        O  0.96751417  0.50110314  0.89909336    -0.73190
Cu205      Cu  0.00183146  0.51371081  0.99668493     1.04560
Cu206      Cu  0.00396257  0.48308794  0.93788582     1.04330
C207        C  0.95464557  0.52059452  0.91448830     0.93110
C208        C  0.05037699  0.47627858  0.02085367     0.92250
C209        C  0.05502361  0.52039365  0.92135505     0.84390
C210        C  0.95102197  0.47635113  0.01335258     0.90670
O211        O  0.46593203  0.51049694  0.53710750    -0.73090
O212        O  0.53780871  0.47604770  0.45684212    -0.74070
O213        O  0.54164443  0.50965544  0.53259978    -0.62690
O214        O  0.46238774  0.47700950  0.46111311    -0.71100
O215        O  0.46199641  0.50534925  0.40599863    -0.70650
O216        O  0.54021476  0.53857008  0.47855592    -0.61900
O217        O  0.53760802  0.50451551  0.40248977    -0.74410
O218        O  0.46468765  0.53922457  0.48258737    -0.73190
Cu219      Cu  0.50197613  0.49232795  0.49879879     1.04560
Cu220      Cu  0.50108428  0.52294278  0.44046251     1.04330
C221        C  0.45387981  0.53018463  0.52242075     0.93110
C222        C  0.54928118  0.48461527  0.41701617     0.92250
C223        C  0.55339015  0.52922005  0.51670976     0.84390
C224        C  0.44984097  0.48592427  0.42206437     0.90670
N225        N  0.18642426  0.40347984  0.17912261    -0.27430
N226        N  0.20136357  0.42384376  0.19034804    -0.35290
C227        C  0.18347610  0.44116996  0.16789823     0.00910
C228        C  0.15620862  0.43119541  0.14070035     0.06930
C229        C  0.15862347  0.40730372  0.14919544    -0.06170
H230        H  0.18965304  0.45963307  0.17188689     0.07600
H231        H  0.14177311  0.39365493  0.13404079     0.08800
Cu232      Cu  0.24583887  0.42713734  0.23473466     0.44170
Cu233      Cu  0.20517915  0.37141478  0.20377405     0.41990
Cu234      Cu  0.28184564  0.37294614  0.28396838     0.43880
N235        N  0.29009759  0.42571860  0.27988378    -0.34820
N236        N  0.30268647  0.40605128  0.29878811    -0.29070
C237        C  0.33097098  0.41121390  0.32708348    -0.05170
C238        C  0.33641080  0.43521621  0.32568265     0.07040
C239        C  0.31025476  0.44387661  0.29522571     0.00840
H240        H  0.34668523  0.39841417  0.34667912     0.08490
H241        H  0.30597966  0.46203390  0.28529445     0.07570
N242        N  0.25778514  0.34205867  0.26012236    -0.36270
N243        N  0.22992517  0.34158190  0.23054826    -0.28450
C244        C  0.22120129  0.31910029  0.22100343    -0.03690
C245        C  0.24489922  0.30468778  0.24539600     0.04920
C246        C  0.26745692  0.31984284  0.27030113     0.03010
H247        H  0.19879527  0.31374922  0.19872520     0.08120
H248        H  0.28953560  0.31505892  0.29365680     0.06950
C249        C  0.39124997  0.45935126  0.32253110    -0.20450
C250        C  0.36467770  0.44867286  0.35061328    -0.07020
C251        C  0.36563743  0.45077908  0.40182358     0.13850
C252        C  0.39368738  0.46317215  0.42395606    -0.20500
C253        C  0.42062337  0.47368750  0.39607035    -0.07020
C254        C  0.41942818  0.47174915  0.34460866     0.13840
C255        C  0.44843037  0.48177290  0.31289562    -0.23850
H256        H  0.39027070  0.45757174  0.28319156     0.15130
H257        H  0.39445622  0.46481898  0.46332148     0.15160
C258        C  0.33663959  0.44046652  0.43306943    -0.23800
H259        H  0.44423174  0.47732034  0.27383764     0.05370
H260        H  0.47472143  0.47455041  0.32402555     0.08600
H261        H  0.44881043  0.50121293  0.31617733     0.08590
H262        H  0.33599866  0.42108642  0.42848726     0.08580
H263        H  0.31042086  0.44791394  0.42230255     0.08580
H264        H  0.34093598  0.44441875  0.47233171     0.05350
C265        C  0.11299113  0.47005348  0.04482430    -0.20450
C266        C  0.07703139  0.46420375  0.05080403    -0.07020
C267        C  0.06701751  0.44756022  0.08601236     0.13850
C268        C  0.09348508  0.43708490  0.11486780    -0.20500
C269        C  0.12960572  0.44316469  0.10962450    -0.07020
C270        C  0.13953683  0.45969844  0.07371532     0.13840
C271        C  0.17799533  0.46583124  0.06410777    -0.23850
H272        H  0.12027461  0.48281516  0.01738980     0.15130
H273        H  0.08592339  0.42428608  0.14206291     0.15160
C274        C  0.02842859  0.44104145  0.09322562    -0.23800
H275        H  0.18078843  0.47744943  0.03195592     0.05370
H276        H  0.19355883  0.44957855  0.05683086     0.08600
H277        H  0.18947512  0.47535017  0.09575125     0.08590
H278        H  0.01739732  0.43360375  0.05887297     0.08580
H279        H  0.01283654  0.45689838  0.10360900     0.08580
H280        H  0.02516835  0.42775881  0.12237170     0.05350
C281        C  0.09127900  0.55647852  0.91074983    -0.20450
C282        C  0.08437211  0.53320716  0.89615802    -0.07020
C283        C  0.10585294  0.52308748  0.85897427     0.13850
C284        C  0.13230309  0.53680283  0.83659907    -0.20500
C285        C  0.13859610  0.56027322  0.85047287    -0.07020
C286        C  0.11805408  0.57004315  0.88903748     0.13840
C287        C  0.12439743  0.59436538  0.90940492    -0.23850
H288        H  0.07539962  0.56435571  0.93950942     0.15130
H289        H  0.14803232  0.52907291  0.80754817     0.15160
C290        C  0.10191385  0.49781562  0.84291844    -0.23800
H291        H  0.11057264  0.59701986  0.94480590     0.05370
H292        H  0.11342389  0.60771616  0.88431637     0.08600
H293        H  0.15328691  0.59725808  0.91603489     0.08590
H294        H  0.07526005  0.49500441  0.82624913     0.08580
H295        H  0.10550315  0.48601142  0.87463220     0.08580
H296        H  0.12214648  0.49278503  0.81520085     0.05350
C297        C  0.36757016  0.54715794  0.58455626    -0.20450
C298        C  0.37877626  0.56617047  0.61370872    -0.07020
C299        C  0.41507427  0.57317496  0.61259616     0.13850
C300        C  0.43883779  0.56139471  0.58142152    -0.20500
C301        C  0.42741791  0.54261433  0.55226657    -0.07020
C302        C  0.39155390  0.53525498  0.55386858     0.13840
C303        C  0.37867178  0.51496676  0.52295983    -0.23850
H304        H  0.33988539  0.54168371  0.58559581     0.15130
H305        H  0.46669615  0.56652364  0.58048189     0.15160
C306        C  0.42956532  0.59207933  0.64588711    -0.23800
H307        H  0.34972170  0.51166534  0.52809772     0.05370
H308        H  0.39334288  0.49873055  0.53288507     0.08600
H309        H  0.38335130  0.51880005  0.48385209     0.08590
H310        H  0.42248719  0.58814782  0.68426038     0.08580
H311        H  0.41882094  0.60946696  0.63553744     0.08580
H312        H  0.45909784  0.59329186  0.64365415     0.05350
C313        C  0.61378768  0.43769568  0.36911163    -0.20450
C314        C  0.62859995  0.44898401  0.32856004    -0.07020
C315        C  0.61685131  0.47199967  0.31711024     0.13850
C316        C  0.59113634  0.48292371  0.34676026    -0.20500
C317        C  0.57638133  0.47164919  0.38749166    -0.07020
C318        C  0.58782923  0.44846633  0.39844579     0.13840
C319        C  0.57285052  0.43448944  0.44027961    -0.23850
H320        H  0.62272338  0.42016385  0.37826535     0.15130
H321        H  0.58255377  0.50057131  0.33785206     0.15160
C322        C  0.62998707  0.48515787  0.27313482    -0.23800
H323        H  0.58430800  0.41650149  0.44189630     0.05370
H324        H  0.54353181  0.43256296  0.43599007     0.08600
H325        H  0.57922733  0.44331272  0.47540785     0.08590
H326        H  0.62804689  0.47391012  0.24003672     0.08580
H327        H  0.65778821  0.49108594  0.27911420     0.08580
H328        H  0.61393330  0.50122675  0.26634426     0.05350
C329        C  0.87525123  0.43460377  0.04843439    -0.20450
C330        C  0.86659070  0.44312828  0.09496473    -0.07020
C331        C  0.88596030  0.46225520  0.11466221     0.13850
C332        C  0.91316992  0.47247871  0.08699225    -0.20500
C333        C  0.92185808  0.46417972  0.04006265    -0.07020
C334        C  0.90244129  0.44484078  0.02054686     0.13840
C335        C  0.90954338  0.43484895  0.97044894    -0.23850
H336        H  0.86038915  0.41984200  0.03366116     0.15130
H337        H  0.92799867  0.48703448  0.10261592     0.15160
C338        C  0.87940510  0.47141038  0.16557467    -0.23800
H339        H  0.89090214  0.42032421  0.96112103     0.05370
H340        H  0.93698934  0.42756465  0.96872369     0.08600
H341        H  0.90607659  0.44874489  0.94261233     0.08590
H342        H  0.88101726  0.45677985  0.19206886     0.08580
H343        H  0.85290078  0.47994115  0.16778801     0.08580
H344        H  0.89945070  0.48482509  0.17648151     0.05350
C345        C  0.87414044  0.55748086  0.87811167    -0.20450
C346        C  0.87683481  0.55683575  0.82725495    -0.07020
C347        C  0.90462652  0.54397247  0.80500968     0.13850
C348        C  0.92940019  0.53210512  0.83437912    -0.20500
C349        C  0.92715319  0.53297986  0.88547851    -0.07020
C350        C  0.89872613  0.54556087  0.90761631     0.13840
C351        C  0.89328030  0.54590412  0.96207581    -0.23850
H352        H  0.85249986  0.56729424  0.89477364     0.15130
H353        H  0.95107724  0.52248861  0.81734976     0.15160
C354        C  0.90882638  0.54341381  0.75043220    -0.23800
H355        H  0.86820708  0.55507366  0.97239678     0.05370
H356        H  0.91556748  0.55533082  0.98023562     0.08600
H357        H  0.89167004  0.52762525  0.97588890     0.08590
H358        H  0.91203445  0.56159376  0.73661112     0.08580
H359        H  0.88493147  0.53529206  0.73339174     0.08580
H360        H  0.93255852  0.53304837  0.73909884     0.05430
C361        C  0.64463059  0.54513651  0.56594367    -0.20450
C362        C  0.63685429  0.56550330  0.59321178    -0.07020
C363        C  0.60104014  0.57351420  0.59589921     0.13850
C364        C  0.57437866  0.56134960  0.57013058    -0.20500
C365        C  0.58242090  0.54122727  0.54276261    -0.07020
C366        C  0.61779387  0.53290446  0.54066853     0.13840
C367        C  0.62722698  0.51137345  0.51109535    -0.23850
H368        H  0.67191549  0.53887909  0.56402968     0.15130
H369        H  0.54694495  0.56737351  0.57181452     0.15160
C370        C  0.59013397  0.59403900  0.62755599    -0.23800
H371        H  0.65622351  0.50743242  0.51280485     0.05370
H372        H  0.61987172  0.51413288  0.47233199     0.08600
H373        H  0.61253260  0.49590252  0.52516416     0.08590
H374        H  0.60044797  0.61066208  0.61232523     0.08580
H375        H  0.60025059  0.59158372  0.66522585     0.08580
H376        H  0.56065648  0.59581724  0.62961253     0.05350
C377        C  0.25026306  0.76674685  0.79358929    -0.20450
C378        C  0.25829350  0.77890166  0.75064794    -0.07020
C379        C  0.26599791  0.76601895  0.70764569     0.13850
C380        C  0.26575927  0.74136767  0.70898764    -0.20500
C381        C  0.25769732  0.72919983  0.75190057    -0.07020
C382        C  0.25009029  0.74207943  0.79495246     0.13840
C383        C  0.24328950  0.73012651  0.84291997    -0.23850
H384        H  0.24451151  0.77666579  0.82651942     0.15130
H385        H  0.27145544  0.73147298  0.67600921     0.15160
C386        C  0.27296339  0.77796159  0.65970723    -0.23800
H387        H  0.24124889  0.74300573  0.87338428     0.05370
H388        H  0.26552942  0.71791044  0.85136293     0.08600
H389        H  0.21776601  0.72036145  0.84157704     0.08590
H390        H  0.29844349  0.78777323  0.66125468     0.08580
H391        H  0.25071768  0.79013891  0.65106608     0.08580
H392        H  0.27518965  0.76507911  0.62927234     0.05350
C393        C  0.38417478  0.96956674  0.65832836    -0.20450
C394        C  0.37391408  0.94723330  0.64141940    -0.07020
C395        C  0.38946117  0.93840942  0.59794874     0.13850
C396        C  0.41566364  0.95167702  0.57410598    -0.20500
C397        C  0.42678654  0.97378959  0.59160310    -0.07020
C398        C  0.41012498  0.98301120  0.63417613     0.13840
C399        C  0.41892806  0.00697179  0.65472466    -0.23850
H400        H  0.37199402  0.97651461  0.69119818     0.15130
H401        H  0.42755409  0.94454282  0.54122234     0.15160
C402        C  0.37780924  0.91556719  0.57474244    -0.23800
H403        H  0.40267524  0.01125208  0.68742624     0.05370
H404        H  0.41333893  0.02066762  0.62709185     0.08600
H405        H  0.44737610  0.00763078  0.66590571     0.08590
H406        H  0.34828055  0.91496953  0.57178566     0.08580
H407        H  0.38779363  0.90050472  0.59612015     0.08580
H408        H  0.38877501  0.91346118  0.53737701     0.05350
C409        C  0.76269224  0.76481259  0.77248074    -0.20450
C410        C  0.75764939  0.77731141  0.72915264    -0.07020
C411        C  0.75426102  0.76492884  0.68462210     0.13850
C412        C  0.75590103  0.74029543  0.68465738    -0.20500
C413        C  0.76100028  0.72771269  0.72797120    -0.07020
C414        C  0.76405612  0.74015549  0.77263838     0.13840
C415        C  0.76708078  0.72773000  0.82081888    -0.23850
H416        H  0.76508319  0.77444509  0.80654828     0.15130
H417        H  0.75354671  0.73076795  0.65047078     0.15160
C418        C  0.75028880  0.77754816  0.63679124    -0.23800
H419        H  0.76553121  0.74023950  0.85199080     0.05370
H420        H  0.79308840  0.71860726  0.82353358     0.08600
H421        H  0.74497108  0.71489679  0.82470529     0.08590
H422        H  0.77279214  0.78999302  0.63187598     0.08580
H423        H  0.72469500  0.78728893  0.63589431     0.08580
H424        H  0.75030590  0.76512074  0.60540994     0.05350
C425        C  0.56967484  0.96126470  0.63459406    -0.20450
C426        C  0.58119306  0.97297388  0.59263007    -0.07020
C427        C  0.61715678  0.97107117  0.57795043     0.13850
C428        C  0.64117797  0.95823040  0.60655491    -0.20500
C429        C  0.62967523  0.94647205  0.64833994    -0.07020
C430        C  0.59346946  0.94765337  0.66223695     0.13840
C431        C  0.58010336  0.93474775  0.70633162    -0.23850
H432        H  0.54187261  0.96244949  0.64521238     0.15130
H433        H  0.66897753  0.95704793  0.59591882     0.15160
C434        C  0.63030434  0.98286045  0.53258861    -0.23800
H435        H  0.55116366  0.93777776  0.71238112     0.05370
H436        H  0.59475127  0.94082992  0.73925431     0.08600
H437        H  0.58435540  0.91556909  0.70139392     0.08590
H438        H  0.62597191  0.00194447  0.53637324     0.08580
H439        H  0.61548998  0.97617823  0.50032469     0.08580
H440        H  0.65922403  0.97977155  0.52648966     0.05350
C441        C  0.24618305  0.26761643  0.29216901    -0.20450
C442        C  0.24532373  0.27867705  0.24665930    -0.07020
C443        C  0.24561579  0.26478204  0.20372336     0.13850
C444        C  0.24634139  0.24017827  0.20752841    -0.20500
C445        C  0.24729975  0.22910378  0.25303842    -0.07020
C446        C  0.24689131  0.24301368  0.29599408     0.13840
C447        C  0.24561499  0.23214502  0.34591927    -0.23850
H448        H  0.24581278  0.27833379  0.32497599     0.15130
H449        H  0.24678796  0.22948099  0.17469944     0.15160
C450        C  0.24679158  0.27570207  0.15385154    -0.23800
H451        H  0.24236708  0.24565583  0.37497792     0.05370
H452        H  0.27074357  0.22260642  0.35352994     0.08600
H453        H  0.22268040  0.21985763  0.34823773     0.08590
H454        H  0.26990789  0.28783444  0.15137414     0.08580
H455        H  0.22178067  0.28545630  0.14663556     0.08580
H456        H  0.24964817  0.26220903  0.12468255     0.05350
C457        C  0.40617253  0.05973845  0.45875523    -0.20450
C458        C  0.42658649  0.04240183  0.43488840    -0.07020
C459        C  0.41903482  0.03713809  0.38520074     0.13850
C460        C  0.39141951  0.04919656  0.36142863    -0.20500
C461        C  0.37143654  0.06653867  0.38538915    -0.07020
C462        C  0.37869817  0.07180072  0.43473919     0.13840
C463        C  0.35663865  0.08939025  0.46287461    -0.23850
H464        H  0.41137378  0.06371501  0.49677444     0.15130
H465        H  0.38558016  0.04526446  0.32353383     0.15160
C466        C  0.44014573  0.01932893  0.35620159    -0.23800
H467        H  0.36459010  0.09023678  0.50184775     0.05370
H468        H  0.32803715  0.08437025  0.46117169     0.08600
H469        H  0.36014555  0.10720046  0.44750086     0.08590
H470        H  0.43611191  0.00148890  0.37133760     0.08580
H471        H  0.46891129  0.02398814  0.35694221     0.08580
H472        H  0.43164090  0.01867407  0.31742527     0.05350
C473        C  0.91537502  0.94266700  0.94321523    -0.20450
C474        C  0.92468629  0.96577413  0.93052380    -0.07020
C475        C  0.90675207  0.97642761  0.89069166     0.13850
C476        C  0.88140775  0.96342270  0.86418137    -0.20500
C477        C  0.87280645  0.94017406  0.87622366    -0.07020
C478        C  0.88964928  0.92981097  0.91706892     0.13840
C479        C  0.87996023  0.90566356  0.93508584    -0.23850
H480        H  0.92840305  0.93442134  0.97395289     0.15130
H481        H  0.86830164  0.97151980  0.83333015     0.15160
C482        C  0.91330225  0.00154497  0.87581446    -0.23800
H483        H  0.89182045  0.90210089  0.97141398     0.05370
H484        H  0.89048452  0.89204492  0.90996582     0.08600
H485        H  0.85056818  0.90404589  0.93873571     0.08590
H486        H  0.94123900  0.00366445  0.86324405     0.08580
H487        H  0.90781945  0.01354682  0.90699702     0.08580
H488        H  0.89568099  0.00697176  0.84531485     0.05350
C489        C  0.10865148  0.02127994  0.10978092    -0.20450
C490        C  0.07911424  0.03400359  0.09321720    -0.07020
C491        C  0.07675052  0.05824701  0.10395024     0.13850
C492        C  0.10383688  0.06905762  0.13128948    -0.20500
C493        C  0.13417102  0.05663078  0.14711472    -0.07020
C494        C  0.13647377  0.03219668  0.13588433     0.13840
C495        C  0.16814999  0.01729115  0.14935391    -0.23850
H496        H  0.11033938  0.00268431  0.10115370     0.15130
H497        H  0.10109242  0.08752410  0.14017638     0.15160
C498        C  0.04534518  0.07279533  0.08772051    -0.23800
H499        H  0.16710881  0.99971552  0.13153422     0.05370
H500        H  0.16823932  0.01412531  0.18913836     0.08600
H501        H  0.19325277  0.02584299  0.13743740     0.08590
H502        H  0.02036186  0.06487661  0.10147263     0.08580
H503        H  0.04447450  0.07364120  0.04736327     0.08580
H504        H  0.04684539  0.09112646  0.10173483     0.05350
C505        C  0.09914872  0.93936241  0.86893993    -0.20450
C506        C  0.13510546  0.94343645  0.88059747    -0.07020
C507        C  0.14376072  0.95840378  0.92023423     0.13850
C508        C  0.11618665  0.96933908  0.94657975    -0.20500
C509        C  0.08038594  0.96564205  0.93409311    -0.07020
C510        C  0.07164347  0.95045937  0.89508854     0.13840
C511        C  0.03331222  0.94603204  0.88119805    -0.23850
H512        H  0.09261375  0.92769740  0.83884348     0.15130
H513        H  0.12253389  0.98084656  0.97702437     0.15160
C514        C  0.18185618  0.96222790  0.93595257    -0.23800
H515        H  0.03110379  0.93366632  0.84985884     0.05370
H516        H  0.02034076  0.96283287  0.87087500     0.08600
H517        H  0.01879080  0.93834360  0.91253622     0.08590
H518        H  0.19700821  0.97107291  0.90665675     0.08580
H519        H  0.19452765  0.94506816  0.94426979     0.08580
H520        H  0.18356767  0.97346401  0.96912548     0.05350
C521        C  0.75185082  0.23893329  0.18908411    -0.20450
C522        C  0.74779957  0.22909096  0.23547844    -0.07020
C523        C  0.74332274  0.24408566  0.27635442     0.13850
C524        C  0.74247674  0.26851926  0.26951719    -0.20500
C525        C  0.74648482  0.27834529  0.22309141    -0.07020
C526        C  0.75102866  0.26334966  0.18225418     0.13840
C527        C  0.75342397  0.27281334  0.13117585    -0.23850
H528        H  0.75509310  0.22738529  0.15782229     0.15130
H529        H  0.73916520  0.28008617  0.30073720     0.15160
C530        C  0.74097060  0.23460857  0.32742392    -0.23800
H531        H  0.75398402  0.25846236  0.10355270     0.05370
H532        H  0.77822257  0.28314486  0.12669852     0.08600
H533        H  0.72990606  0.28406510  0.12342836     0.08590
H534        H  0.76445699  0.22331430  0.33508450     0.08580
H535        H  0.71614244  0.22431900  0.33197671     0.08580
H536        H  0.74051397  0.24895708  0.35505794     0.05350
C537        C  0.63801758  0.06132000  0.41586744    -0.20450
C538        C  0.62750569  0.06678910  0.36835195    -0.07020
C539        C  0.59231966  0.06202232  0.35309539     0.13850
C540        C  0.56911141  0.05025312  0.38482546    -0.20500
C541        C  0.57973046  0.04438174  0.43234254    -0.07020
C542        C  0.61424511  0.05086854  0.44865762     0.13840
C543        C  0.62726766  0.04708912  0.49987459    -0.23850
H544        H  0.66485070  0.06563620  0.42776278     0.15130
H545        H  0.54235155  0.04587438  0.37275391     0.15160
C546        C  0.57940712  0.06927833  0.30343042    -0.23800
H547        H  0.63505838  0.06424811  0.51617083     0.05370
H548        H  0.65108615  0.03548219  0.49917564     0.08600
H549        H  0.60689773  0.03925595  0.52387336     0.08590
H550        H  0.59595989  0.06074462  0.27484652     0.08580
H551        H  0.58143842  0.08866471  0.29984791     0.08580
H552        H  0.55113285  0.06420982  0.29729739     0.05350
C553        C  0.86207541  0.03897171  0.11422181    -0.20450
C554        C  0.87132587  0.05925424  0.14091481    -0.07020
C555        C  0.90761810  0.06611458  0.14355753     0.13850
C556        C  0.93329054  0.05317612  0.11768059    -0.20500
C557        C  0.92384175  0.03340353  0.09007173    -0.07020
C558        C  0.88798097  0.02597750  0.08863964     0.13840
C559        C  0.87704631  0.00470614  0.05924784    -0.23850
H560        H  0.83438763  0.03354919  0.11259522     0.15130
H561        H  0.96097102  0.05844080  0.11920957     0.15160
C562        C  0.91992630  0.08632904  0.17514808    -0.23800
H563        H  0.84787629  0.00147905  0.06151318     0.05370
H564        H  0.89106141  0.98889492  0.07306702     0.08600
H565        H  0.88411095  0.00728653  0.02034775     0.08590
H566        H  0.91009363  0.08400102  0.21296422     0.08580
H567        H  0.91019520  0.10321780  0.16040395     0.08580
H568        H  0.94949588  0.08744784  0.17664619     0.05350
loop_ 
_geom_bond_atom_site_label_1 
_geom_bond_atom_site_label_2 
_geom_bond_distance 
_geom_bond_site_symmetry_2 
_ccdc_geom_bond_type 
N1            N2   1.323       .  A
N1            C5   1.343       .  A
N1           Cu9   2.074       .  S
N2            C3   1.347       .  A
N2           Cu8   2.081       .  S
C3            C4   1.386       .  A
C3            H6   1.082       .  S
C4            C5   1.384       .  A
C4          C554   1.482       .  S
C5            H7   1.080       .  S
Cu8          N11   2.081       .  S
Cu9          N19   2.073       .  S
Cu10         N12   2.065       .  S
Cu10         N18   2.065       .  S
N11          N12   1.323       .  A
N11          C15   1.346       .  A
N12          C13   1.344       .  A
C13          C14   1.379       .  A
C13          H16   1.082       .  S
C14          C15   1.383       .  A
C14         C538   1.471       .  S
C15          H17   1.082       .  S
N18          N19   1.321       .  A
N18          C22   1.344       .  A
N19          C20   1.345       .  A
C20          C21   1.385       .  A
C20          H23   1.082       .  S
C21          C22   1.384       .  A
C21         C522   1.480       .  S
C22          H24   1.081       .  S
O25         Cu33   2.011   1_645  S
O25          C35   1.277       .  A
O26         Cu33   2.008       .  S
O26          C36   1.276   1_554  A
O27         Cu33   2.019   1_545  S
O27          C37   1.279       .  A
O28         Cu33   2.013   1_656  S
O28          C38   1.280       .  A
O29         Cu34   2.000   1_665  S
O29          C38   1.276       .  A
O30         Cu34   1.999   1_554  S
O30          C37   1.276       .  A
O31         Cu34   2.010   1_565  S
O31          C36   1.277       .  A
O32         Cu34   2.007   1_654  S
O32          C35   1.277       .  A
Cu33        Cu34   2.373   1_564  S
C35         C557   1.470       .  S
C36         C509   1.469       .  S
C37         C490   1.479       .  S
C38         C474   1.494       .  S
N39          N40   1.321       .  A
N39          C43   1.344       .  A
N39         Cu47   2.069       .  S
N40          C41   1.345       .  A
N40         Cu46   2.070       .  S
C41          C42   1.383       .  A
C41          H44   1.082       .  S
C42          C43   1.383       .  A
C42         C461   1.477       .  S
C43          H45   1.081       .  S
Cu46         N49   2.070       .  S
Cu47         N57   2.069       .  S
Cu48         N50   2.082       .  S
Cu48         N56   2.082       .  S
N49          N50   1.320       .  A
N49          C53   1.344       .  A
N50          C51   1.344       .  A
C51          C52   1.393       .  A
C51          H54   1.081       .  S
C52          C53   1.391       .  A
C52         C493   1.499       .  S
C53          H55   1.076       .  S
N56          N57   1.322       .  A
N56          C60   1.347       .  A
N57          C58   1.344       .  A
C58          C59   1.383       .  A
C58          H61   1.081       .  S
C59          C60   1.386       .  A
C59         C445   1.482       .  S
C60          H62   1.082       .  S
N63          N64   1.323       .  A
N63          C67   1.345       .  A
N63         Cu71   2.071       .  S
N64          C65   1.345       .  A
N64         Cu70   2.078       .  S
C65          C66   1.382       .  A
C65          H68   1.082       .  S
C66          C67   1.380       .  A
C66         C429   1.472       .  S
C67          H69   1.082       .  S
Cu70         N73   2.078       .  S
Cu71         N81   2.071       .  S
Cu72         N74   2.067       .  S
Cu72         N80   2.067       .  S
N73          N74   1.320       .  A
N73          C77   1.345       .  A
N74          C75   1.343       .  A
C75          C76   1.386       .  A
C75          H78   1.078       .  S
C76          C77   1.389       .  A
C76         C477   1.489       .  S
C77          H79   1.082       .  S
N80          N81   1.321       .  A
N80          C84   1.344       .  A
N81          C82   1.345       .  A
C82          C83   1.384       .  A
C82          H85   1.081       .  S
C83          C84   1.382       .  A
C83         C410   1.477       .  S
C84          H86   1.082       .  S
O87         Cu95   2.017       .  S
O87          C97   1.280       .  A
O88         Cu95   2.021       .  S
O88          C98   1.279   1_545  A
O89         Cu95   2.016       .  S
O89          C99   1.278       .  A
O90         Cu95   2.009       .  S
O90         C100   1.276   1_545  A
O91         Cu96   2.013       .  S
O91         C100   1.280       .  A
O92         Cu96   2.012   1_545  S
O92          C99   1.278       .  A
O93         Cu96   2.006       .  S
O93          C98   1.276       .  A
O94         Cu96   1.997   1_545  S
O94          C97   1.275       .  A
Cu95        Cu96   2.368   1_545  S
C97         C458   1.490       .  S
C98         C426   1.474       .  S
C99         C541   1.477       .  S
C100        C397   1.498       .  S
N101        N102   1.321       .  A
N101        C105   1.342       .  A
N101       Cu109   2.068       .  S
N102        C103   1.347       .  A
N102       Cu108   2.083       .  S
C103        C104   1.390       .  A
C103        H106   1.082       .  S
C104        C105   1.386       .  A
C104        C394   1.490       .  S
C105        H107   1.078       .  S
Cu108       N111   2.084       .  S
Cu109       N119   2.067       .  S
Cu110       N112   2.075       .  S
Cu110       N118   2.074       .  S
N111        N112   1.324       .  A
N111        C115   1.346       .  A
N112        C113   1.345       .  A
C113        C114   1.382       .  A
C113        H116   1.082       .  S
C114        C115   1.384       .  A
C114        C506   1.478       .  S
C115        H117   1.082       .  S
N118        N119   1.321       .  A
N118        C122   1.345       .  A
N119        C120   1.344       .  A
C120        C121   1.384       .  A
C120        H123   1.080       .  S
C121        C122   1.386       .  A
C121        C378   1.481       .  S
C122        H124   1.082       .  S
N125        N126   1.323       .  A
N125        C129   1.344       .  A
N125       Cu133   2.071       .  S
N126        C127   1.346       .  A
N126       Cu132   2.078       .  S
C127        C128   1.382       .  A
C127        H130   1.082       .  S
C128        C129   1.380       .  A
C128        C346   1.473       .  S
C129        H131   1.082       .  S
Cu132       N135   2.078       .  S
Cu133       N143   2.071       .  S
Cu134       N136   2.067       .  S
Cu134       N142   2.067       .  S
N135        N136   1.321       .  A
N135        C139   1.346       .  A
N136        C137   1.343       .  A
C137        C138   1.384       .  A
C137        H140   1.080       .  S
C138        C139   1.387       .  A
C138        C362   1.484       .  S
C139        H141   1.082       .  S
N142        N143   1.320       .  A
N142        C146   1.343       .  A
N143        C144   1.345       .  A
C144        C145   1.386       .  A
C144        H147   1.080       .  S
C145        C146   1.384       .  A
C145        C413   1.482       .  S
C146        H148   1.082       .  S
N149        N150   1.320       .  A
N149        C153   1.344       .  A
N149       Cu157   2.069       .  S
N150        C151   1.342       .  A
N150       Cu156   2.060       .  S
C151        C152   1.383       .  A
C151        H154   1.080       .  S
C152        C153   1.384       .  A
C152        C330   1.478       .  S
C153        H155   1.082       .  S
Cu156       N159   2.060       .  S
Cu157       N167   2.070       .  S
Cu158       N160   2.077       .  S
Cu158       N166   2.078       .  S
N159        N160   1.320       .  A
N159        C163   1.342       .  A
N160        C161   1.343       .  A
C161        C162   1.390       .  A
C161        H164   1.082       .  S
C162        C163   1.386       .  A
C162        C314   1.490       .  S
C163        H165   1.077       .  S
N166        N167   1.322       .  A
N166        C170   1.346       .  A
N167        C168   1.344       .  A
C168        C169   1.383       .  A
C168        H171   1.081       .  S
C169        C170   1.385       .  A
C169        C525   1.479       .  S
C170        H172   1.082       .  S
N173        N174   1.323       .  A
N173        C177   1.342       .  A
N173       Cu181   2.068       .  S
N174        C175   1.346       .  A
N174       Cu180   2.083       .  S
C175        C176   1.386       .  A
C175        H178   1.082       .  S
C176        C177   1.382       .  A
C176        C298   1.481       .  S
C177        H179   1.080       .  S
Cu180       N183   2.082       .  S
Cu181       N191   2.067       .  S
Cu182       N184   2.065       .  S
Cu182       N190   2.065       .  S
N183        N184   1.320       .  A
N183        C187   1.346       .  A
N184        C185   1.341       .  A
C185        C186   1.387       .  A
C185        H188   1.076       .  S
C186        C187   1.392       .  A
C186        C285   1.494       .  S
C187        H189   1.082       .  S
N190        N191   1.319       .  A
N190        C194   1.344       .  A
N191        C192   1.344       .  A
C192        C193   1.386       .  A
C192        H195   1.082       .  S
C193        C194   1.385       .  A
C193        C381   1.482       .  S
C194        H196   1.080       .  S
O197       Cu205   2.001   1_655  S
O197        C207   1.276       .  A
O198       Cu205   2.000   1_554  S
O198        C208   1.275       .  A
O199       Cu205   2.003       .  S
O199        C209   1.279       .  A
O200       Cu205   2.000   1_654  S
O200        C210   1.278       .  A
O201       Cu206   2.006   1_655  S
O201        C210   1.277   1_556  A
O202       Cu206   2.009       .  S
O202        C209   1.277       .  A
O203       Cu206   2.012       .  S
O203        C208   1.277   1_556  A
O204       Cu206   2.015   1_655  S
O204        C207   1.279       .  A
Cu205      Cu206   2.369       .  S
C207        C349   1.482       .  S
C208        C266   1.466       .  S
C209        C282   1.493       .  S
C210        C333   1.490       .  S
O211       Cu219   1.997       .  S
O211        C221   1.275       .  A
O212       Cu219   1.994       .  S
O212        C222   1.275       .  A
O213       Cu219   2.007       .  S
O213        C223   1.277       .  A
O214       Cu219   2.004       .  S
O214        C224   1.278       .  A
O215       Cu220   2.007       .  S
O215        C224   1.277       .  A
O216       Cu220   2.005       .  S
O216        C223   1.276       .  A
O217       Cu220   2.012       .  S
O217        C222   1.280       .  A
O218       Cu220   2.011       .  S
O218        C221   1.277       .  A
Cu219      Cu220   2.374       .  S
C221        C301   1.466       .  S
C222        C317   1.492       .  S
C223        C365   1.468       .  S
C224        C253   1.478       .  S
N225        N226   1.322       .  A
N225        C229   1.345       .  A
N225       Cu233   2.072       .  S
N226        C227   1.344       .  A
N226       Cu232   2.071       .  S
C227        C228   1.385       .  A
C227        H230   1.081       .  S
C228        C229   1.384       .  A
C228        C269   1.480       .  S
C229        H231   1.082       .  S
Cu232       N235   2.071       .  S
Cu233       N243   2.072       .  S
Cu234       N236   2.077       .  S
Cu234       N242   2.077       .  S
N235        N236   1.323       .  A
N235        C239   1.345       .  A
N236        C237   1.345       .  A
C237        C238   1.382       .  A
C237        H240   1.082       .  S
C238        C239   1.380       .  A
C238        C250   1.473       .  S
C239        H241   1.082       .  S
N242        N243   1.322       .  A
N242        C246   1.346       .  A
N243        C244   1.344       .  A
C244        C245   1.384       .  A
C244        H247   1.081       .  S
C245        C246   1.385       .  A
C245        C442   1.481       .  S
C246        H248   1.082       .  S
C249        C250   1.401       .  A
C249        C254   1.405       .  A
C249        H256   1.084       .  S
C250        C251   1.410       .  A
C251        C252   1.402       .  A
C251        C258   1.507       .  S
C252        C253   1.404       .  A
C252        H257   1.084       .  S
C253        C254   1.416       .  A
C254        C255   1.508       .  S
C255        H259   1.111       .  S
C255        H260   1.111       .  S
C255        H261   1.109       .  S
C258        H262   1.109       .  S
C258        H263   1.110       .  S
C258        H264   1.111       .  S
C265        C266   1.399       .  A
C265        C270   1.403       .  A
C265        H272   1.085       .  S
C266        C267   1.409       .  A
C267        C268   1.404       .  A
C267        C274   1.507       .  S
C268        C269   1.405       .  A
C268        H273   1.084       .  S
C269        C270   1.417       .  A
C270        C271   1.507       .  S
C271        H275   1.111       .  S
C271        H276   1.110       .  S
C271        H277   1.107       .  S
C274        H278   1.110       .  S
C274        H279   1.111       .  S
C274        H280   1.111       .  S
C281        C282   1.405       .  A
C281        C286   1.402       .  A
C281        H288   1.084       .  S
C282        C283   1.419       .  A
C283        C284   1.406       .  A
C283        C290   1.508       .  S
C284        C285   1.406       .  A
C284        H289   1.083       .  S
C285        C286   1.420       .  A
C286        C287   1.508       .  S
C287        H291   1.111       .  S
C287        H292   1.107       .  S
C287        H293   1.110       .  S
C290        H294   1.110       .  S
C290        H295   1.111       .  S
C290        H296   1.111       .  S
C297        C298   1.405       .  A
C297        C302   1.403       .  A
C297        H304   1.084       .  S
C298        C299   1.418       .  A
C299        C300   1.403       .  A
C299        C306   1.508       .  S
C300        C301   1.398       .  A
C300        H305   1.085       .  S
C301        C302   1.409       .  A
C302        C303   1.507       .  S
C303        H307   1.111       .  S
C303        H308   1.110       .  S
C303        H309   1.111       .  S
C306        H310   1.110       .  S
C306        H311   1.107       .  S
C306        H312   1.111       .  S
C313        C314   1.404       .  A
C313        C318   1.402       .  A
C313        H320   1.083       .  S
C314        C315   1.418       .  A
C315        C316   1.404       .  A
C315        C322   1.507       .  S
C316        C317   1.406       .  A
C316        H321   1.084       .  S
C317        C318   1.421       .  A
C318        C319   1.510       .  S
C319        H323   1.111       .  S
C319        H324   1.110       .  S
C319        H325   1.110       .  S
C322        H326   1.110       .  S
C322        H327   1.107       .  S
C322        H328   1.111       .  S
C329        C330   1.401       .  A
C329        C334   1.404       .  A
C329        H336   1.084       .  S
C330        C331   1.413       .  A
C331        C332   1.401       .  A
C331        C338   1.508       .  S
C332        C333   1.407       .  A
C332        H337   1.083       .  S
C333        C334   1.421       .  A
C334        C335   1.508   1_554  S
C335        H339   1.111       .  S
C335        H340   1.110       .  S
C335        H341   1.110       .  S
C338        H342   1.110       .  S
C338        H343   1.107       .  S
C338        H344   1.111       .  S
C345        C346   1.400       .  A
C345        C350   1.403       .  A
C345        H352   1.084       .  S
C346        C347   1.410       .  A
C347        C348   1.404       .  A
C347        C354   1.506       .  S
C348        C349   1.405       .  A
C348        H353   1.084       .  S
C349        C350   1.418       .  A
C350        C351   1.509       .  S
C351        H355   1.111       .  S
C351        H356   1.109       .  S
C351        H357   1.111       .  S
C354        H358   1.111       .  S
C354        H359   1.109       .  S
C354        H360   1.111       .  S
C361        C362   1.406       .  A
C361        C366   1.404       .  A
C361        H368   1.084       .  S
C362        C363   1.419       .  A
C363        C364   1.404       .  A
C363        C370   1.508       .  S
C364        C365   1.398       .  A
C364        H369   1.085       .  S
C365        C366   1.409       .  A
C366        C367   1.507       .  S
C367        H371   1.111       .  S
C367        H372   1.111       .  S
C367        H373   1.110       .  S
C370        H374   1.107       .  S
C370        H375   1.110       .  S
C370        H376   1.111       .  S
C377        C378   1.403       .  A
C377        C382   1.404       .  A
C377        H384   1.084       .  S
C378        C379   1.415       .  A
C379        C380   1.403       .  A
C379        C386   1.508       .  S
C380        C381   1.403       .  A
C380        H385   1.084       .  S
C381        C382   1.415       .  A
C382        C383   1.508       .  S
C383        H387   1.111       .  S
C383        H388   1.110       .  S
C383        H389   1.107       .  S
C386        H390   1.107       .  S
C386        H391   1.110       .  S
C386        H392   1.111       .  S
C393        C394   1.404       .  A
C393        C398   1.407       .  A
C393        H400   1.084       .  S
C394        C395   1.417       .  A
C395        C396   1.404       .  A
C395        C402   1.508       .  S
C396        C397   1.407       .  A
C396        H401   1.083       .  S
C397        C398   1.423       .  A
C398        C399   1.509   1_565  S
C399        H403   1.111       .  S
C399        H404   1.111       .  S
C399        H405   1.110       .  S
C402        H406   1.110       .  S
C402        H407   1.107       .  S
C402        H408   1.111       .  S
C409        C410   1.402       .  A
C409        C414   1.404       .  A
C409        H416   1.084       .  S
C410        C411   1.412       .  A
C411        C412   1.403       .  A
C411        C418   1.507       .  S
C412        C413   1.404       .  A
C412        H417   1.084       .  S
C413        C414   1.416       .  A
C414        C415   1.507       .  S
C415        H419   1.111       .  S
C415        H420   1.107       .  S
C415        H421   1.110       .  S
C418        H422   1.110       .  S
C418        H423   1.108       .  S
C418        H424   1.111       .  S
C425        C426   1.403       .  A
C425        C430   1.406       .  A
C425        H432   1.084       .  S
C426        C427   1.411       .  A
C427        C428   1.402       .  A
C427        C434   1.502       .  S
C428        C429   1.400       .  A
C428        H433   1.084       .  S
C429        C430   1.411       .  A
C430        C431   1.506       .  S
C431        H435   1.111       .  S
C431        H436   1.110       .  S
C431        H437   1.110       .  S
C434        H438   1.102   1_565  S
C434        H439   1.110       .  S
C434        H440   1.111       .  S
C441        C442   1.402       .  A
C441        C446   1.405       .  A
C441        H448   1.084       .  S
C442        C443   1.415       .  A
C443        C444   1.405       .  A
C443        C450   1.507       .  S
C444        C445   1.403       .  A
C444        H449   1.084       .  S
C445        C446   1.416       .  A
C446        C447   1.508       .  S
C447        H451   1.111       .  S
C447        H452   1.107       .  S
C447        H453   1.110       .  S
C450        H454   1.110       .  S
C450        H455   1.107       .  S
C450        H456   1.111       .  S
C457        C458   1.407       .  A
C457        C462   1.403       .  A
C457        H464   1.084       .  S
C458        C459   1.422       .  A
C459        C460   1.404       .  A
C459        C466   1.509       .  S
C460        C461   1.400       .  A
C460        H465   1.084       .  S
C461        C462   1.411       .  A
C462        C463   1.507       .  S
C463        H467   1.111       .  S
C463        H468   1.110       .  S
C463        H469   1.108       .  S
C466        H470   1.110       .  S
C466        H471   1.111       .  S
C466        H472   1.111       .  S
C473        C474   1.407       .  A
C473        C478   1.404       .  A
C473        H480   1.084       .  S
C474        C475   1.422       .  A
C475        C476   1.404       .  A
C475        C482   1.509   1_565  S
C476        C477   1.403       .  A
C476        H481   1.084       .  S
C477        C478   1.417       .  A
C478        C479   1.508       .  S
C479        H483   1.111       .  S
C479        H484   1.107       .  S
C479        H485   1.110       .  S
C482        H486   1.110       .  S
C482        H487   1.111       .  S
C482        H488   1.111       .  S
C489        C490   1.400       .  A
C489        C494   1.407       .  A
C489        H496   1.085       .  S
C490        C491   1.411       .  A
C491        C492   1.402       .  A
C491        C498   1.507       .  S
C492        C493   1.408       .  A
C492        H497   1.082       .  S
C493        C494   1.425       .  A
C494        C495   1.506       .  S
C495        H499   1.111   1_545  S
C495        H500   1.108       .  S
C495        H501   1.110       .  S
C498        H502   1.107       .  S
C498        H503   1.109       .  S
C498        H504   1.111       .  S
C505        C506   1.404       .  A
C505        C510   1.404       .  A
C505        H512   1.084       .  S
C506        C507   1.415       .  A
C507        C508   1.405       .  A
C507        C514   1.507       .  S
C508        C509   1.400       .  A
C508        H513   1.084       .  S
C509        C510   1.410       .  A
C510        C511   1.507       .  S
C511        H515   1.111       .  S
C511        H516   1.111       .  S
C511        H517   1.111       .  S
C514        H518   1.108       .  S
C514        H519   1.110       .  S
C514        H520   1.111       .  S
C521        C522   1.403       .  A
C521        C526   1.403       .  A
C521        H528   1.084       .  S
C522        C523   1.415       .  A
C523        C524   1.404       .  A
C523        C530   1.508       .  S
C524        C525   1.403       .  A
C524        H529   1.084       .  S
C525        C526   1.415       .  A
C526        C527   1.508       .  S
C527        H531   1.111       .  S
C527        H532   1.107       .  S
C527        H533   1.110       .  S
C530        H534   1.110       .  S
C530        H535   1.107       .  S
C530        H536   1.111       .  S
C537        C538   1.399       .  A
C537        C542   1.402       .  A
C537        H544   1.085       .  S
C538        C539   1.409       .  A
C539        C540   1.405       .  A
C539        C546   1.506       .  S
C540        C541   1.405       .  A
C540        H545   1.085       .  S
C541        C542   1.417       .  A
C542        C543   1.504       .  S
C543        H547   1.110       .  S
C543        H548   1.110       .  S
C543        H549   1.105       .  S
C546        H550   1.110       .  S
C546        H551   1.111       .  S
C546        H552   1.111       .  S
C553        C554   1.406       .  A
C553        C558   1.406       .  A
C553        H560   1.084       .  S
C554        C555   1.417       .  A
C555        C556   1.402       .  A
C555        C562   1.508       .  S
C556        C557   1.398       .  A
C556        H561   1.081       .  S
C557        C558   1.410       .  A
C558        C559   1.507       .  S
C559        H563   1.111       .  S
C559        H564   1.110   1_545  S
C559        H565   1.111       .  S
C562        H566   1.110       .  S
C562        H567   1.107       .  S
C562        H568   1.111       .  S
