geometry optimzed in LAMMPS
_audit_creation_date              2020-11-30 
_audit_creation_method            'lammps2cif' 
_symmetry_space_group_name_H-M    'P1' 
_symmetry_Int_Tables_number       1 
_symmetry_cell_setting            triclinic 
loop_ 
_symmetry_equiv_pos_as_xyz 
  x,y,z 
_cell_length_a                    45.02504145 
_cell_length_b                    45.086771076350615 
_cell_length_c                    45.14926291036306 
_cell_angle_alpha                 90.02124943182638 
_cell_angle_beta                  90.01346061646787 
_cell_angle_gamma                 89.99037365776896 
loop_ 
_atom_site_label 
_atom_site_type_symbol 
_atom_site_fract_x 
_atom_site_fract_y 
_atom_site_fract_z 
_atom_site_charge 
C1          C  0.00469252  0.25144814  0.23442151     0.04000
C2          C  0.00981603  0.27430735  0.25466996    -0.12200
C3          C  0.01460151  0.26823615  0.28454649     0.01500
C4          C  0.01482972  0.23885165  0.29421514    -0.10700
C5          C  0.00946112  0.21556915  0.27437852     0.04000
C6          C  0.00409538  0.22180673  0.24422634    -0.10100
H7          H  0.00887779  0.29713730  0.24715045     0.09600
H8          H  0.01818694  0.23408081  0.31752333     0.07100
H9          H  0.99928990  0.20402090  0.22882536     0.06900
O10         O  0.01765857  0.46746049  0.41452636    -0.85600
O11         O  0.02214664  0.46712082  0.58297636    -0.85800
O12         O  0.06229197  0.42867303  0.49702766    -0.87500
O13         O  0.96469891  0.43729171  0.50152323    -0.86200
O14         O  0.93314723  0.47712803  0.50132650    -0.85800
O15         O  0.10120724  0.46129242  0.49613118    -0.87200
O16         O  0.01746508  0.43253060  0.54604845    -0.85700
O17         O  0.01433498  0.43291375  0.45164706    -0.85300
Zr18       Zr  0.01572866  0.45724547  0.49890048     2.84300
O19         O  0.98939862  0.48981700  0.52932945    -1.07200
O20         O  0.04750840  0.48354195  0.46749037    -1.08000
C21         C  0.01590084  0.44052970  0.42423250     1.07500
C22         C  0.02042275  0.44007481  0.57339356     1.07400
C23         C  0.09041119  0.43480580  0.49623087     1.10400
C24         C  0.93831925  0.44894433  0.50210274     1.08200
H25         H  0.06127926  0.47050784  0.53993611     0.33700
O26         O  0.04928524  0.48372879  0.52825789    -1.28200
H27         H  0.97430257  0.47806561  0.45721413     0.33400
O28         O  0.98808030  0.48937885  0.46897163    -1.29900
O29         O  0.03735670  0.56324659  0.58099873    -0.85600
O30         O  0.02877868  0.56390306  0.41439641    -0.87100
O31         O  0.10653456  0.51139544  0.54350416    -0.85700
O32         O  0.93920284  0.52365629  0.54750083    -0.85800
O33         O  0.93625565  0.52397563  0.45175674    -0.85500
O34         O  0.10414256  0.50969351  0.44852707    -0.85300
O35         O  0.07806415  0.59596760  0.49754480    -0.85700
O36         O  0.98045024  0.60572635  0.49917072    -0.85100
O37         O  0.10943325  0.55590151  0.49640036    -0.86200
O38         O  0.94182566  0.57254281  0.50127340    -0.85300
O39         O  0.07297413  0.51385891  0.58154954    -0.85700
O40         O  0.06810963  0.51250985  0.41284148    -0.85500
O41         O  0.97064105  0.51981857  0.41452496    -0.85100
O42         O  0.97396758  0.52105375  0.58443663    -0.85500
O43         O  0.03819940  0.59978668  0.54546278    -0.85800
O44         O  0.03230676  0.60041451  0.44985154    -0.87200
Zr45       Zr  0.02284176  0.51618482  0.55914001     2.83100
Zr46       Zr  0.01993417  0.51626314  0.43803064     2.83500
Zr47       Zr  0.08025083  0.51079619  0.49678813     2.84100
Zr48       Zr  0.96246154  0.52262533  0.49933314     2.83400
Zr49       Zr  0.02691727  0.57666318  0.49806967     2.84200
O50         O  0.99367898  0.54987502  0.46809670    -1.07700
O51         O  0.05357552  0.54293844  0.52702629    -1.07200
C52         C  0.04257879  0.58991134  0.57194645     1.07400
C53         C  0.03344923  0.59087836  0.42289498     1.10000
C54         C  0.09989495  0.51287480  0.57121200     1.07600
C55         C  0.94668032  0.52284940  0.57501689     1.08000
C56         C  0.94355792  0.52221185  0.42407774     1.07500
C57         C  0.09556940  0.51085097  0.42127776     1.07100
C58         C  0.10423748  0.58401758  0.49675991     1.07500
C59         C  0.95243845  0.59915053  0.50067125     1.07000
H60         H  0.06669925  0.55424604  0.45543598     0.33700
O61         O  0.05287050  0.54342189  0.46768581    -1.28800
H62         H  0.98454385  0.56327442  0.54234436     0.33700
O63         O  0.99533839  0.54963216  0.52958460    -1.30200
C64         C  0.98375960  0.70355506  0.76226026     0.04000
C65         C  0.96751743  0.72386467  0.74457239    -0.12200
C66         C  0.98096103  0.73634454  0.71911981     0.01500
C67         C  0.00932619  0.72685242  0.71075210    -0.10700
C68         C  0.02529020  0.70631463  0.72778055     0.04000
C69         C  0.01308836  0.69657261  0.75455359    -0.10100
H70         H  0.94485332  0.72950599  0.75027213     0.09600
H71         H  0.01828092  0.73463163  0.68986736     0.07100
H72         H  0.02539445  0.68111162  0.76822532     0.06900
C73         C  0.99838031  0.24289502  0.75388421     0.04000
C74         C  0.00538388  0.26616961  0.73470294    -0.12200
C75         C  0.00878049  0.26128246  0.70445279     0.01500
C76         C  0.00603641  0.23243367  0.69324628    -0.10700
C77         C  0.99984954  0.20855243  0.71229865     0.04000
C78         C  0.99579656  0.21381603  0.74282868    -0.10100
H79         H  0.00680469  0.28861563  0.74329135     0.09600
H80         H  0.00834815  0.22858593  0.66965277     0.07100
H81         H  0.98997108  0.19576166  0.75753974     0.06900
C82         C  0.98893303  0.71308007  0.20534872     0.04000
C83         C  0.97557887  0.73915933  0.21683910    -0.12200
C84         C  0.98720278  0.75230072  0.24287408     0.01500
C85         C  0.01054462  0.73834676  0.25775543    -0.10700
C86         C  0.02252135  0.71164002  0.24758607     0.04000
C87         C  0.01312301  0.70042168  0.22026687    -0.10100
H88         H  0.95619734  0.74855865  0.20619108     0.09600
H89         H  0.01733348  0.74704930  0.27910911     0.07100
H90         H  0.02257563  0.67987343  0.21207190     0.06900
O91         O  0.98156827  0.02189775  0.40710054    -0.85600
O92         O  0.98100054  0.01279897  0.57530585    -0.85800
O93         O  0.93855774  0.05752084  0.49376685    -0.87500
O94         O  0.03240651  0.05042007  0.49441378    -0.86200
O95         O  0.06648594  0.01271145  0.49345521    -0.85800
O96         O  0.89854993  0.02616886  0.49171674    -0.87200
O97         O  0.98500702  0.05034466  0.54124687    -0.85700
O98         O  0.98487225  0.05597411  0.44468594    -0.85300
Zr99       Zr  0.98312136  0.02893475  0.49155871     2.84300
O100        O  0.00989511  0.99584999  0.52062128    -1.07200
O101        O  0.95092680  0.00380088  0.45939661    -1.08000
C102        C  0.98381193  0.04864000  0.41700991     1.07500
C103        C  0.98392612  0.04043331  0.56811586     1.07400
C104        C  0.91052601  0.05228944  0.49398033     1.10400
C105        C  0.05924057  0.04041951  0.49518618     1.08200
H106        H  0.93837731  0.01273235  0.53291544     0.33700
O107        O  0.94984543  0.00033452  0.51966757    -1.28200
H108        H  0.02519129  0.01182283  0.44821606     0.33400
O109        O  0.01179335  0.99978607  0.45978080    -1.29900
O110        O  0.97270766  0.91681940  0.56947664    -0.85600
O111        O  0.97687499  0.92610307  0.40190923    -0.87100
O112        O  0.89252321  0.96705556  0.53567334    -0.85700
O113        O  0.06147257  0.96213533  0.53784232    -0.85800
O114        O  0.06329775  0.96459907  0.44061907    -0.85500
O115        O  0.89460766  0.97615649  0.43761611    -0.85300
O116        O  0.92405949  0.89085779  0.47647186    -0.85700
O117        O  0.02143571  0.88311720  0.48205300    -0.85100
O118        O  0.89092152  0.92987077  0.47626157    -0.86200
O119        O  0.05873868  0.91791144  0.48474094    -0.85300
O120        O  0.92855187  0.96403697  0.57137376    -0.85700
O121        O  0.93226916  0.97341462  0.40358520    -0.85500
O122        O  0.02771654  0.96800139  0.40454920    -0.85100
O123        O  0.02466701  0.96198595  0.57286444    -0.85500
O124        O  0.97024812  0.88234451  0.53218982    -0.85800
O125        O  0.97402563  0.88765940  0.43497877    -0.87200
Zr126      Zr  0.97707111  0.96615341  0.54771157     2.83100
Zr127      Zr  0.97978882  0.97287716  0.42900788     2.83500
Zr128      Zr  0.91786461  0.97495222  0.48747660     2.84100
Zr129      Zr  0.03828830  0.96650778  0.48909149     2.83400
Zr130      Zr  0.97423747  0.90973071  0.48510792     2.84200
O131        O  0.00685124  0.93959529  0.45777684    -1.07700
O132        O  0.94522222  0.94043393  0.51570030    -1.07200
C133        C  0.97006282  0.88992174  0.55990197     1.07400
C134        C  0.97477659  0.89821219  0.40824044     1.10000
C135        C  0.90113981  0.96358963  0.56296224     1.07600
C136        C  0.05221438  0.96121282  0.56496536     1.08000
C137        C  0.05490210  0.96501384  0.41312920     1.07500
C138        C  0.90450762  0.97395939  0.41062981     1.07100
C139        C  0.89824184  0.90257259  0.47176477     1.07500
C140        C  0.04892039  0.89134696  0.48173449     1.07000
H141        H  0.93567377  0.93405195  0.44326991     0.33700
O142        O  0.94776139  0.94460558  0.45740133    -1.28800
H143        H  0.01740640  0.92225718  0.52864341     0.33700
O144        O  0.00604239  0.93611549  0.51681884    -1.30200
C145        C  0.22175895  0.25532516  0.49821133     0.04000
C146        C  0.20157009  0.23175963  0.50189819    -0.12200
C147        C  0.21163030  0.20276853  0.50704973     0.01500
C148        C  0.24213237  0.19758335  0.50923296    -0.10700
C149        C  0.26266534  0.22040424  0.50477365     0.04000
C150        C  0.25255526  0.24952282  0.49949104    -0.10100
H151        H  0.17792358  0.23598493  0.50029780     0.09600
H152        H  0.25014170  0.17530779  0.51350945     0.07100
H153        H  0.26837260  0.26725050  0.49585992     0.06900
C154        C  0.73884289  0.25842790  0.49934370     0.04000
C155        C  0.75855400  0.23460033  0.50059437    -0.12200
C156        C  0.78887840  0.23896173  0.50435145     0.01500
C157        C  0.79996144  0.26777239  0.50738797    -0.10700
C158        C  0.78081244  0.29239901  0.50562783     0.04000
C159        C  0.74990761  0.28772745  0.50149192    -0.10100
H160        H  0.75005493  0.21213072  0.49877963     0.09600
H161        H  0.82366070  0.27111725  0.51003664     0.07100
H162        H  0.73485335  0.30641679  0.50028814     0.06900
C163        C  0.74520105  0.78019889  0.47212984     0.04000
C164        C  0.76578674  0.76212019  0.48742152    -0.12200
C165        C  0.78760750  0.74634191  0.47139792     0.01500
C166        C  0.78983567  0.75043622  0.44075175    -0.10700
C167        C  0.77155666  0.77077718  0.42549350     0.04000
C168        C  0.74739566  0.78286164  0.44124000    -0.10100
H169        H  0.76497393  0.76055863  0.51133883     0.09600
H170        H  0.80786174  0.73922426  0.42961848     0.07100
H171        H  0.73170991  0.79725964  0.43039853     0.06900
C172        C  0.26065785  0.73490298  0.48023509     0.04000
C173        C  0.23703632  0.75351148  0.47291763    -0.12200
C174        C  0.23973976  0.78404326  0.47491361     0.01500
C175        C  0.26679837  0.79676709  0.48264258    -0.10700
C176        C  0.29162264  0.77888574  0.48860938     0.04000
C177        C  0.28844725  0.74752328  0.48797488    -0.10100
H178        H  0.21538185  0.74405503  0.46807251     0.09600
H179        H  0.26844944  0.82071777  0.48413572     0.07100
H180        H  0.30692366  0.73336117  0.49393331     0.06900
C181        C  0.72128788  0.99852543  0.20729334     0.04000
C182        C  0.74513897  0.98309277  0.22068764    -0.12200
C183        C  0.75794886  0.99416939  0.24702425     0.01500
C184        C  0.74572318  0.01927795  0.26052432    -0.10700
C185        C  0.72075505  0.03334146  0.24864117     0.04000
C186        C  0.71048802  0.02447086  0.22070420    -0.10100
H187        H  0.75294964  0.96240777  0.21130310     0.09600
H188        H  0.75380894  0.02569670  0.28222783     0.07100
H189        H  0.69135262  0.03552892  0.21118334     0.06900
O190        O  0.46545702  0.09758184  0.49143781    -0.85600
O191        O  0.47812031  0.92960610  0.49448181    -0.85800
O192        O  0.43731466  0.01199116  0.44451165    -0.87500
O193        O  0.43538337  0.01238647  0.54032333    -0.86200
O194        O  0.47014912  0.01519144  0.57735961    -0.85800
O195        O  0.47305173  0.01234456  0.40838741    -0.87200
O196        O  0.43933403  0.96247709  0.49347362    -0.85700
O197        O  0.43194384  0.05935979  0.49316442    -0.85300
Zr198      Zr  0.46021436  0.01258045  0.49281197     2.84300
O199        O  0.49161725  0.98528333  0.52380241    -1.07200
O200        O  0.48796432  0.04369055  0.46220503    -1.08000
C201        C  0.43878100  0.08728484  0.49239341     1.07500
C202        C  0.45000437  0.93582765  0.49409325     1.07400
C203        C  0.44578629  0.01167734  0.41726382     1.10400
C204        C  0.44313879  0.01380921  0.56779467     1.08200
H205        H  0.48150227  0.97077103  0.45125879     0.33700
O206        O  0.49261734  0.98441047  0.46341828    -1.28200
H207        H  0.47350190  0.05664808  0.53465905     0.33400
O208        O  0.48698309  0.04493624  0.52286379    -1.29900
O209        O  0.57419878  0.93717686  0.49875278    -0.85600
O210        O  0.55992559  0.10510004  0.49228097    -0.87100
O211        O  0.52688891  0.96680225  0.40967353    -0.85700
O212        O  0.52444722  0.96871931  0.57881784    -0.85800
O213        O  0.51266294  0.06731785  0.57680458    -0.85500
O214        O  0.51388467  0.06290209  0.40734513    -0.85300
O215        O  0.60553665  0.02826570  0.44579428    -0.85700
O216        O  0.60213126  0.03510754  0.54085244    -0.85100
O217        O  0.56895442  0.02573030  0.41042520    -0.86200
O218        O  0.56528190  0.03260269  0.57599839    -0.85300
O219        O  0.52906924  0.93270947  0.44725807    -0.85700
O220        O  0.51143312  0.09859797  0.44345588    -0.85500
O221        O  0.51169646  0.10195605  0.53966564    -0.85100
O222        O  0.52571164  0.93371205  0.54206063    -0.85500
O223        O  0.60857640  0.97475447  0.49830631    -0.85800
O224        O  0.59996338  0.07380872  0.49238110    -0.87200
Zr225      Zr  0.52467252  0.95819087  0.49446320     2.83100
Zr226      Zr  0.51473168  0.07605669  0.49229366     2.83500
Zr227      Zr  0.52092677  0.01571427  0.43317433     2.84100
Zr228      Zr  0.51874496  0.01783039  0.55375355     2.83400
Zr229      Zr  0.58050962  0.02220701  0.49349264     2.84200
O230        O  0.54642442  0.04873382  0.52246178    -1.07700
O231        O  0.55348731  0.98888348  0.46371268    -1.07200
C232        C  0.60113572  0.94688866  0.50020267     1.07400
C233        C  0.58810175  0.10012934  0.49215005     1.10000
C234        C  0.52947500  0.93994476  0.41960765     1.07600
C235        C  0.52617849  0.94137293  0.56956194     1.08000
C236        C  0.51096397  0.09447968  0.56728562     1.07500
C237        C  0.51122861  0.09008497  0.41613952     1.07100
C238        C  0.59596285  0.03060922  0.41889811     1.07500
C239        C  0.59178127  0.03894486  0.56719557     1.07000
H240        H  0.55838038  0.06268707  0.45096330     0.33700
O241        O  0.54762960  0.04874514  0.46310994    -1.28800
H242        H  0.56548335  0.97994166  0.53748646     0.33700
O243        O  0.55228080  0.99076282  0.52442238    -1.30200
C244        C  0.25171739  0.98082988  0.75263402     0.04000
C245        C  0.27382110  0.99085070  0.73339586    -0.12200
C246        C  0.26876330  0.99237165  0.70306569     0.01500
C247        C  0.24101985  0.98491268  0.69163809    -0.10700
C248        C  0.21829429  0.97517103  0.71051973     0.04000
C249        C  0.22360566  0.97295960  0.74128795    -0.10100
H250        H  0.29578482  0.99590519  0.74194191     0.09600
H251        H  0.23739356  0.98574248  0.66789880     0.07100
H252        H  0.20653013  0.96453112  0.75592598     0.06900
C253        C  0.70285527  0.95711171  0.75504863     0.04000
C254        C  0.72749162  0.94462690  0.74010939    -0.12200
C255        C  0.74030220  0.96000989  0.71596617     0.01500
C256        C  0.72752104  0.98672402  0.70647674    -0.10700
C257        C  0.70296910  0.99901165  0.72110140     0.04000
C258        C  0.69165081  0.98458110  0.74598688    -0.10100
H259        H  0.73663668  0.92360923  0.74727169     0.09600
H260        H  0.73639289  0.99747875  0.68691403     0.07100
H261        H  0.67326467  0.99430672  0.75807163     0.06900
C262        C  0.25986784  0.96166169  0.22917291     0.04000
C263        C  0.28306465  0.97042060  0.24766693    -0.12200
C264        C  0.27853708  0.97520292  0.27775711     0.01500
C265        C  0.25009475  0.97100408  0.28964987    -0.10700
C266        C  0.22623600  0.96252250  0.27137666     0.04000
C267        C  0.23107507  0.95810178  0.24079508    -0.10100
H268        H  0.30492880  0.97407437  0.23822829     0.09600
H269        H  0.24647947  0.97406140  0.31318790     0.07100
H270        H  0.21292897  0.95156080  0.22646431     0.06900
O271        O  0.56111498  0.96384279  0.03654744    -0.85600
O272        O  0.39376884  0.97760499  0.03750476    -0.85800
O273        O  0.48335399  0.02305535  0.06965813    -0.87500
O274        O  0.46695633  0.92642108  0.07526273    -0.86200
O275        O  0.46377250  0.88773308  0.04224491    -0.85800
O276        O  0.48604777  0.05558256  0.03074716    -0.87200
O277        O  0.42943346  0.97713497  0.07370721    -0.85700
O278        O  0.52724380  0.96819661  0.07411768    -0.85300
Zr279      Zr  0.47817521  0.97265298  0.04958533     2.84300
O280        O  0.44581380  0.94408131  0.02070346    -1.07200
O281        O  0.51014722  0.99752476  0.01716627    -1.08000
C282        C  0.55424165  0.96545871  0.06427180     1.07500
C283        C  0.40205173  0.97771308  0.06484143     1.07400
C284        C  0.48595672  0.04944708  0.05857883     1.10400
C285        C  0.46173240  0.89904558  0.06845009     1.08200
H286        H  0.43927470  0.01786529  0.02969672     0.33700
O287        O  0.45037605  0.00363111  0.01821296    -1.28200
H288        H  0.51567204  0.92481224  0.03443924     0.33400
O289        O  0.50445437  0.93751218  0.02134377    -1.29900
O290        O  0.39298560  0.97521574  0.94180867    -0.85600
O291        O  0.55958149  0.95457253  0.94071507    -0.87100
O292        O  0.43681369  0.05746922  0.98356225    -0.85700
O293        O  0.41991635  0.89021547  0.99350877    -0.85800
O294        O  0.51920128  0.87967238  0.99460353    -0.85500
O295        O  0.53290946  0.04773618  0.98260156    -0.85300
O296        O  0.47847850  0.01151557  0.90167710    -0.85700
O297        O  0.46432939  0.91642891  0.90990422    -0.85100
O298        O  0.48157128  0.04850517  0.93641841    -0.86200
O299        O  0.46267382  0.88160302  0.94706577    -0.85300
O300        O  0.39780639  0.02512213  0.98645988    -0.85700
O301        O  0.56524871  0.00856956  0.98498116    -0.85500
O302        O  0.55701712  0.91363576  0.99294001    -0.85100
O303        O  0.38815354  0.93001236  0.99177729    -0.85500
O304        O  0.42741846  0.96935039  0.90496414    -0.85800
O305        O  0.52365373  0.95583479  0.90474610    -0.87200
Zr306      Zr  0.41790568  0.97494053  0.98973409     2.83100
Zr307      Zr  0.53611028  0.96291203  0.98872531     2.83500
Zr308      Zr  0.48250339  0.02780825  0.98545601     2.84100
Zr309      Zr  0.47169846  0.90839716  0.99304454     2.83400
Zr310      Zr  0.47602466  0.96503884  0.92934320     2.84200
O311        O  0.50361947  0.93363250  0.96053690    -1.07700
O312        O  0.44948316  0.99973886  0.95732947    -1.07200
C313        C  0.40042670  0.97284152  0.91426867     1.07400
C314        C  0.55087675  0.95269803  0.91348587     1.10000
C315        C  0.40867310  0.05154209  0.98418488     1.07600
C316        C  0.39356221  0.90190138  0.99268859     1.08000
C317        C  0.54725886  0.88682063  0.99478024     1.07500
C318        C  0.55939754  0.03659694  0.98297657     1.07100
C319        C  0.47957118  0.03903923  0.90959389     1.07500
C320        C  0.45908436  0.89018229  0.92002040     1.07000
H321        H  0.52265949  0.00403865  0.94351471     0.33700
O322        O  0.50932448  0.99381528  0.95682665    -1.28800
H323        H  0.42981743  0.92924059  0.95104031     0.33700
O324        O  0.44436858  0.94031168  0.96209548    -1.30200
C325        C  0.50145868  0.23492795  0.25104068     0.04000
C326        C  0.50702887  0.26473504  0.24327017    -0.12200
C327        C  0.51235814  0.27215591  0.21333956     0.01500
C328        C  0.51242025  0.24974537  0.19177218    -0.10700
C329        C  0.50712429  0.22024772  0.19952662     0.04000
C330        C  0.50141075  0.21308822  0.22902127    -0.10100
H331        H  0.50739711  0.28177358  0.26018145     0.09600
H332        H  0.51656370  0.25534012  0.16878111     0.07100
H333        H  0.49714806  0.19018077  0.23500819     0.06900
C334        C  0.51526420  0.74197091  0.23263312     0.04000
C335        C  0.52739836  0.75340942  0.25901878    -0.12200
C336        C  0.51169887  0.77540102  0.27482168     0.01500
C337        C  0.48433343  0.78567794  0.26402254    -0.10700
C338        C  0.47349395  0.77617489  0.23652573     0.04000
C339        C  0.48867169  0.75353148  0.22166832    -0.10100
H340        H  0.54896998  0.74600048  0.26663772     0.09600
H341        H  0.47310073  0.80349821  0.27562714     0.07100
H342        H  0.48139126  0.74641653  0.19992566     0.06900
C343        C  0.51304355  0.73794270  0.75499615     0.04000
C344        C  0.48736959  0.75006785  0.76751122    -0.12200
C345        C  0.47328096  0.77476840  0.75505500     0.01500
C346        C  0.48480375  0.78679530  0.72882078    -0.10700
C347        C  0.51127441  0.77601466  0.71641605     0.04000
C348        C  0.52562883  0.75138848  0.72962754    -0.10100
H349        H  0.47966027  0.74115688  0.78842290     0.09600
H350        H  0.47421749  0.80597780  0.71891935     0.07100
H351        H  0.54624890  0.74305300  0.72052311     0.06900
C352        C  0.50563894  0.23790370  0.73431206     0.04000
C353        C  0.49737879  0.21432180  0.75254387    -0.12200
C354        C  0.49654300  0.21752568  0.78310755     0.01500
C355        C  0.50331102  0.24472071  0.79611256    -0.10700
C356        C  0.51080499  0.26924060  0.77850072     0.04000
C357        C  0.51217888  0.26584103  0.74722478    -0.10100
H358        H  0.49281340  0.19273986  0.74288234     0.09600
H359        H  0.50269968  0.24680863  0.82003936     0.07100
H360        H  0.51860693  0.28434063  0.73335733     0.06900
O361        O  0.98863725  0.38500902  0.04012111    -0.85600
O362        O  0.97136944  0.55177823  0.03472619    -0.85800
O363        O  0.03265088  0.47229691  0.07228563    -0.87500
O364        O  0.93696108  0.46091860  0.07577870    -0.86200
O365        O  0.89977536  0.45476659  0.04150508    -0.85800
O366        O  0.06637337  0.47382141  0.03438838    -0.87200
O367        O  0.97516974  0.51858240  0.07290718    -0.85700
O368        O  0.98759221  0.42114535  0.07578504    -0.85300
Zr369      Zr  0.98305662  0.46913786  0.05009763     2.84300
O370        O  0.94913070  0.49448999  0.01982886    -1.07200
O371        O  0.01435017  0.44065102  0.02009282    -1.08000
C372        C  0.98890097  0.39366454  0.06735772     1.07500
C373        C  0.97123696  0.54519651  0.06252796     1.07400
C374        C  0.05949011  0.47322766  0.06202784     1.10400
C375        C  0.91002266  0.45492978  0.06828276     1.08200
H376        H  0.02038556  0.51469331  0.02973069     0.33700
O377        O  0.00890012  0.50075348  0.01813882    -1.28200
H378        H  0.94453042  0.42192886  0.03412256     0.33400
O379        O  0.95489302  0.43575491  0.02151090    -1.29900
O380        O  0.96988680  0.54896263  0.93909414    -0.85600
O381        O  0.98780504  0.38150771  0.94457227    -0.87100
O382        O  0.06022456  0.52215649  0.98672086    -0.85700
O383        O  0.89133733  0.50807257  0.99344362    -0.85800
O384        O  0.90145621  0.40990317  0.99243161    -0.85500
O385        O  0.06927010  0.42595810  0.99110307    -0.85300
O386        O  0.02672310  0.46954132  0.90380219    -0.85700
O387        O  0.93197499  0.44826974  0.90838386    -0.85100
O388        O  0.06242486  0.47331776  0.93973295    -0.86200
O389        O  0.89665011  0.44871502  0.94514292    -0.85300
O390        O  0.02128977  0.55487389  0.98627852    -0.85700
O391        O  0.03602318  0.38769662  0.99360117    -0.85500
O392        O  0.94122399  0.37820995  0.99172896    -0.85100
O393        O  0.92504950  0.54629866  0.99299744    -0.85500
O394        O  0.97194966  0.51273439  0.90340576    -0.85800
O395        O  0.98425996  0.41535898  0.90686834    -0.87200
Zr396      Zr  0.97497115  0.52593079  0.98770805     2.83100
Zr397      Zr  0.98631481  0.40787011  0.99149485     2.83500
Zr398      Zr  0.04000193  0.47194926  0.98807136     2.84100
Zr399      Zr  0.92054158  0.46125075  0.99192871     2.83400
Zr400      Zr  0.97906531  0.46481950  0.92930167     2.84200
O401        O  0.95322866  0.43429007  0.96215964    -1.07700
O402        O  0.00690505  0.49810737  0.95783708    -1.07200
C403        C  0.96945381  0.54020279  0.91181899     1.07400
C404        C  0.98670170  0.38851288  0.91688415     1.10000
C405        C  0.04942118  0.54874302  0.98623101     1.07600
C406        C  0.89829039  0.53606691  0.99468971     1.08000
C407        C  0.91306637  0.38353749  0.99197554     1.07500
C408        C  0.06266453  0.39807110  0.99336541     1.07100
C409        C  0.05391976  0.47255522  0.91253419     1.07500
C410        C  0.90555454  0.44337942  0.91846567     1.07000
H411        H  0.02618774  0.42688068  0.94722137     0.33700
O412        O  0.01281756  0.43859215  0.95923231    -1.28800
H413        H  0.93217830  0.50333234  0.94699518     0.33700
O414        O  0.94629221  0.49281317  0.95915003    -1.30200
C415        C  0.78117762  0.49045753  0.27361012     0.04000
C416        C  0.79294494  0.46641352  0.25779470    -0.12200
C417        C  0.77639304  0.45227270  0.23557848     0.01500
C418        C  0.74661645  0.46040010  0.23175796    -0.10700
C419        C  0.73590106  0.48689536  0.24381136     0.04000
C420        C  0.75303654  0.50180509  0.26548227    -0.10100
H421        H  0.81598768  0.46055765  0.26134068     0.09600
H422        H  0.73346700  0.44923005  0.21499971     0.07100
H423        H  0.74516826  0.52243483  0.27493301     0.06900
C424        C  0.27934620  0.51052663  0.21719151     0.04000
C425        C  0.27063263  0.51650346  0.24668452    -0.12200
C426        C  0.24019038  0.51588475  0.25418908     0.01500
C427        C  0.21907158  0.50970371  0.23241198    -0.10700
C428        C  0.22761199  0.50355434  0.20343382     0.04000
C429        C  0.25762377  0.50417143  0.19581415    -0.10100
H430        H  0.28719266  0.52092990  0.26351336     0.09600
H431        H  0.19570890  0.50896520  0.23829068     0.07100
H432        H  0.26415774  0.49936384  0.17319555     0.06900
C433        C  0.27842960  0.51676146  0.77412435     0.04000
C434        C  0.27506399  0.52371743  0.74367794    -0.12200
C435        C  0.24647472  0.52317550  0.73076273     0.01500
C436        C  0.22191766  0.51556307  0.74799840    -0.10700
C437        C  0.22497591  0.50866284  0.77781397     0.04000
C438        C  0.25309674  0.50946817  0.79084771    -0.10100
H439        H  0.29424772  0.52918194  0.73029628     0.09600
H440        H  0.20010350  0.51446512  0.73780865     0.07100
H441        H  0.25518790  0.50488897  0.81432546     0.06900
C442        C  0.78074333  0.48968840  0.72037616     0.04000
C443        C  0.79030690  0.46285102  0.73291689    -0.12200
C444        C  0.77931985  0.45317159  0.76025980     0.01500
C445        C  0.75530097  0.46812625  0.77283468    -0.10700
C446        C  0.74420819  0.49417651  0.76020326     0.04000
C447        C  0.75755476  0.50570728  0.73430117    -0.10100
H448        H  0.80864231  0.45100021  0.72281361     0.09600
H449        H  0.74660026  0.46099527  0.79406643     0.07100
H450        H  0.75032723  0.52680558  0.72539510     0.06900
C451        C  0.24009356  0.26745922  0.00316267     0.04000
C452        C  0.26157335  0.28977814  0.00580857    -0.12200
C453        C  0.29142237  0.28397890  0.00024997     0.01500
C454        C  0.30014954  0.25546379  0.99195338    -0.10700
C455        C  0.27923617  0.23256965  0.98912642     0.04000
C456        C  0.24893874  0.23861560  0.99470325    -0.10100
H457        H  0.25489020  0.31220930  0.01138954     0.09600
H458        H  0.32352835  0.25086744  0.98846466     0.07100
H459        H  0.23255156  0.22116762  0.99254395     0.06900
O460        O  0.52269532  0.47309704  0.08432554    -0.85600
O461        O  0.51834836  0.46557872  0.91582163    -0.85800
O462        O  0.46945076  0.43622776  0.00458182    -0.87500
O463        O  0.56478359  0.43079021  0.00471645    -0.86200
O464        O  0.60359172  0.46382911  0.00148694    -0.85800
O465        O  0.43487112  0.47353524  0.00288749    -0.87200
O466        O  0.51839232  0.43085293  0.95276626    -0.85700
O467        O  0.51923776  0.43578895  0.05007142    -0.85300
Zr468      Zr  0.51853972  0.45756739  0.00047346     2.84300
O469        O  0.54977939  0.48430552  0.96906973    -1.07200
O470        O  0.49051479  0.49015690  0.02942702    -1.08000
C471        C  0.52133324  0.44539641  0.07701600     1.07500
C472        C  0.51843161  0.43848181  0.92504745     1.07400
C473        C  0.44251668  0.44597798  0.00494435     1.10400
C474        C  0.59258207  0.43752440  0.00468559     1.08200
H475        H  0.47528646  0.47482145  0.95826668     0.33700
O476        O  0.48850788  0.48699502  0.96990782    -1.28200
H477        H  0.56244558  0.47497549  0.04191311     0.33400
O478        O  0.55065008  0.48701537  0.02877784    -1.29900
O479        O  0.52373973  0.56061057  0.91153272    -0.85600
O480        O  0.52765630  0.56909252  0.07875291    -0.87100
O481        O  0.43559100  0.52291179  0.95109541    -0.85700
O482        O  0.60439819  0.50985288  0.94777703    -0.85800
O483        O  0.60678295  0.51811524  0.04723931    -0.85500
O484        O  0.43814145  0.52149020  0.04839530    -0.85300
O485        O  0.47858857  0.60489341  0.99981225    -0.85700
O486        O  0.57500122  0.59737891  0.98415228    -0.85100
O487        O  0.44145991  0.56988552  0.00323178    -0.86200
O488        O  0.60879305  0.55920098  0.98672702    -0.85300
O489        O  0.47120317  0.51800547  0.91519180    -0.85700
O490        O  0.47532647  0.52065801  0.08313842    -0.85500
O491        O  0.56953026  0.52017141  0.08165451    -0.85100
O492        O  0.56675512  0.51204809  0.91355248    -0.85500
O493        O  0.52547724  0.59915469  0.94453194    -0.85800
O494        O  0.53239525  0.60393513  0.04205232    -0.87200
Zr495      Zr  0.51959811  0.51430606  0.93900839     2.83100
Zr496      Zr  0.52253192  0.51994072  0.05697286     2.83500
Zr497      Zr  0.46148640  0.52047098  0.99911330     2.84100
Zr498      Zr  0.58224850  0.51363851  0.99767737     2.83400
Zr499      Zr  0.52533935  0.57758969  0.99489129     2.84200
O500        O  0.55435233  0.54731025  0.02604010    -1.07700
O501        O  0.49213629  0.54809512  0.96732047    -1.07200
C502        C  0.52568131  0.58849176  0.91779395     1.07400
C503        C  0.53196245  0.59589976  0.06960349     1.10000
C504        C  0.44400430  0.52133495  0.92366854     1.07600
C505        C  0.59441822  0.51098850  0.92080309     1.08000
C506        C  0.59710328  0.51983906  0.07440957     1.07500
C507        C  0.44770814  0.52095085  0.07547375     1.07100
C508        C  0.45138674  0.59667820  0.00396768     1.07500
C509        C  0.60119708  0.58607896  0.98034387     1.07000
H510        H  0.48328348  0.56341320  0.03964203     0.33700
O511        O  0.49409592  0.55031362  0.02667583    -1.28800
H512        H  0.56391970  0.55317616  0.95296268     0.33700
O513        O  0.55182994  0.54288300  0.96718935    -1.30200
C514        C  0.71603950  0.74102093  0.96605063     0.04000
C515        C  0.71617197  0.73583250  0.93537490    -0.12200
C516        C  0.73524171  0.71467629  0.92248233     0.01500
C517        C  0.75856304  0.70379505  0.94018401    -0.10700
C518        C  0.75727726  0.70575082  0.97109009     0.04000
C519        C  0.73559934  0.72437592  0.98428023    -0.10100
H520        H  0.69908128  0.74635509  0.92225868     0.09600
H521        H  0.77526125  0.68944044  0.93064484     0.07100
H522        H  0.73410786  0.72600187  0.00815590     0.06900
C523        C  0.23998368  0.74736104  0.01031741     0.04000
C524        C  0.21309332  0.73381038  0.00157948    -0.12200
C525        C  0.20965628  0.70278230  0.00466907     0.01500
C526        C  0.23341704  0.68577706  0.01547897    -0.10700
C527        C  0.26022520  0.69918492  0.02351704     0.04000
C528        C  0.26277602  0.72996234  0.02216082    -0.10100
H529        H  0.19564918  0.74694589  0.99154637     0.09600
H530        H  0.23139224  0.66183922  0.01663464     0.07100
H531        H  0.28399075  0.74024146  0.02717213     0.06900
C532        C  0.75534917  0.23047939  0.99290022     0.04000
C533        C  0.74405752  0.20189419  0.98653679    -0.12200
C534        C  0.71304185  0.19675560  0.98812371     0.01500
C535        C  0.69390808  0.22024547  0.99539091    -0.10700
C536        C  0.70525008  0.24824707  0.00218956     0.04000
C537        C  0.73579208  0.25302837  0.00131338    -0.10100
H538        H  0.75895367  0.18423080  0.97994383     0.09600
H539        H  0.67009257  0.21667121  0.99588231     0.07100
H540        H  0.74436300  0.27513627  0.00552082     0.06900
C541        C  0.64844590  0.37804420  0.98860857    -0.27400
C542        C  0.64322441  0.35846389  0.01225372     0.06200
C543        C  0.62422869  0.36707096  0.03537536     0.25900
C544        C  0.60887869  0.39389528  0.03350005    -0.11900
C545        C  0.61291186  0.41264136  0.00899820    -0.25800
C546        C  0.63346293  0.40507799  0.98700571     0.36700
C547        C  0.65629884  0.32851544  0.01149657     0.06300
F548        F  0.61911148  0.34880124  0.05872520    -0.19600
H549        H  0.59298982  0.39959238  0.05061985     0.16100
F550        F  0.63730539  0.42271668  0.96295646    -0.23300
H551        H  0.66340877  0.37187474  0.97085721     0.17900
C552        C  0.65196075  0.31024735  0.98661079     0.25900
C553        C  0.66645232  0.28299226  0.98461886    -0.11800
C554        C  0.68555715  0.27374370  0.00729611    -0.25900
C555        C  0.68879140  0.29129944  0.03281728     0.36800
C556        C  0.67406354  0.31847339  0.03495529    -0.27500
F557        F  0.63420864  0.31911140  0.96396398    -0.19600
H558        H  0.66396421  0.26978915  0.96471484     0.16100
F559        F  0.70702457  0.28256763  0.05512057    -0.23300
H560        H  0.67750758  0.33223390  0.05432450     0.17900
C561        C  0.32472635  0.64980691  0.00519339    -0.27400
C562        C  0.34515126  0.65806335  0.02707596     0.06200
C563        C  0.33619456  0.67663332  0.05033662     0.25900
C564        C  0.30750782  0.68846416  0.05041310    -0.11900
C565        C  0.28748594  0.68150584  0.02752173    -0.25800
C566        C  0.29608861  0.66135544  0.00533505     0.36700
C567        C  0.37591014  0.64768851  0.02448784     0.06300
F568        F  0.35564826  0.68459972  0.07189044    -0.19600
H569        H  0.30131010  0.70410195  0.06755396     0.16100
F570        F  0.27774841  0.65477103  0.98238385    -0.23300
H571        H  0.33136899  0.63515029  0.98735291     0.17900
C572        C  0.38757616  0.62796426  0.04541818     0.25900
C573        C  0.41428906  0.61362088  0.03959245    -0.11800
C574        C  0.42942102  0.61864187  0.01287914    -0.25900
C575        C  0.41921241  0.64026093  0.99316028     0.36800
C576        C  0.39236382  0.65465917  0.99893886    -0.27500
F577        F  0.37191050  0.62055469  0.07002460    -0.19600
H578        H  0.42222871  0.59697645  0.05498337     0.16100
F579        F  0.43368380  0.64544733  0.96731732    -0.23300
H580        H  0.38352717  0.67002064  0.98273078     0.17900
C581        C  0.66084359  0.60634379  0.92516798    -0.27400
C582        C  0.65984057  0.63739162  0.92539985     0.06200
C583        C  0.63975612  0.65170256  0.94471754     0.25900
C584        C  0.62143419  0.63506238  0.96347009    -0.11900
C585        C  0.62318660  0.60398351  0.96380484    -0.25800
C586        C  0.64321086  0.58981249  0.94434345     0.36700
C587        C  0.68169331  0.65458049  0.90775121     0.06300
F588        F  0.63823638  0.68174398  0.94606404    -0.19600
H589        H  0.60582655  0.64648985  0.97772317     0.16100
F590        F  0.64494412  0.55982511  0.94268115    -0.23300
H591        H  0.67531897  0.59467545  0.90996540     0.17900
C592        C  0.71191035  0.64623987  0.90718787     0.25900
C593        C  0.73306404  0.66646307  0.89715857    -0.11800
C594        C  0.72492721  0.69660340  0.89620555    -0.25900
C595        C  0.69580623  0.70164730  0.88584539     0.36800
C596        C  0.67362581  0.68121249  0.89355289    -0.27500
F597        F  0.72157374  0.62073584  0.91992066    -0.19600
H598        H  0.75613018  0.65993846  0.89844889     0.16100
F599        F  0.68808209  0.72821735  0.87401544    -0.23300
H600        H  0.65049836  0.68702052  0.89044801     0.17900
C601        C  0.35364192  0.33705327  0.98248841    -0.27400
C602        C  0.35388474  0.35478696  0.00792951     0.06200
C603        C  0.33385337  0.34923736  0.03099284     0.25900
C604        C  0.31368474  0.32588919  0.02851919    -0.11900
C605        C  0.31336226  0.30801089  0.00300215    -0.25800
C606        C  0.33343280  0.31383385  0.97990303     0.36700
C607        C  0.37560847  0.37873405  0.01012543     0.06300
F608        F  0.33403098  0.36619272  0.05584682    -0.19600
H609        H  0.29838804  0.32163772  0.04654367     0.16100
F610        F  0.33287671  0.29769246  0.95452394    -0.23300
H611        H  0.36901713  0.34141075  0.96454990     0.17900
C612        C  0.40510331  0.37214216  0.01721037     0.25900
C613        C  0.42649844  0.39437326  0.01630693    -0.11800
C614        C  0.41887048  0.42344375  0.00778141    -0.25900
C615        C  0.38897545  0.42999792  0.00112474     0.36800
C616        C  0.36750905  0.40769835  0.00248709    -0.27500
F617        F  0.41327521  0.34400803  0.02419785    -0.19600
H618        H  0.44920190  0.38859088  0.02174993     0.16100
F619        F  0.38062786  0.45745010  0.99202521    -0.23300
H620        H  0.34474400  0.41274102  0.99655305     0.17900
C621        C  0.62775792  0.52489319  0.84465396    -0.27400
C622        C  0.65691894  0.51470290  0.84823689     0.06200
C623        C  0.66558884  0.50332798  0.87603533     0.25900
C624        C  0.64535608  0.50223565  0.89961207    -0.11900
C625        C  0.61600991  0.51209555  0.89589277    -0.25800
C626        C  0.60749531  0.52357512  0.86801392     0.36700
C627        C  0.67785188  0.51523530  0.82272727     0.06300
F628        F  0.69333848  0.49233779  0.88017016    -0.19600
H629        H  0.65254904  0.49321968  0.92065689     0.16100
F630        F  0.57967800  0.53408265  0.86324257    -0.23300
H631        H  0.62064104  0.53408568  0.82365459     0.17900
C632        C  0.66980918  0.50290042  0.79517147     0.25900
C633        C  0.69097089  0.49989926  0.77260803    -0.11800
C634        C  0.72038599  0.50916662  0.77704700    -0.25900
C635        C  0.72777491  0.52357092  0.80370013     0.36800
C636        C  0.70665886  0.52663852  0.82624380    -0.27500
F637        F  0.64232437  0.49124526  0.79098477    -0.19600
H638        H  0.68510588  0.48779520  0.75271598     0.16100
F639        F  0.75625972  0.53180720  0.80909889    -0.23300
H640        H  0.71323296  0.53666787  0.84704098     0.17900
C641        C  0.34939953  0.54471720  0.81034336    -0.27400
C642        C  0.35516906  0.52161849  0.83044983     0.06200
C643        C  0.33812584  0.49565705  0.82897653     0.25900
C644        C  0.31468917  0.49342421  0.80882715    -0.11900
C645        C  0.30756446  0.51710851  0.78978902    -0.25800
C646        C  0.32581282  0.54247715  0.79000031     0.36700
C647        C  0.37852891  0.52433599  0.85342335     0.06300
F648        F  0.34347966  0.47287554  0.84789159    -0.19600
H649        H  0.30113697  0.47356869  0.80899430     0.16100
F650        F  0.31969344  0.56577272  0.77197995    -0.23300
H651        H  0.36262521  0.56476808  0.81099634     0.17900
C652        C  0.40686719  0.51252781  0.84845351     0.25900
C653        C  0.42794677  0.51210359  0.87123768    -0.11800
C654        C  0.42113290  0.52303220  0.89972182    -0.25900
C655        C  0.39267304  0.53527066  0.90451221     0.36800
C656        C  0.37165736  0.53590164  0.88149409    -0.27500
F657        F  0.41384894  0.50060914  0.82173803    -0.19600
H658        H  0.44949425  0.50245032  0.86668470     0.16100
F659        F  0.38509756  0.54666610  0.93129605    -0.23300
H660        H  0.34972763  0.54482655  0.88574371     0.17900
C661        C  0.37799472  0.53422159  0.12129786    -0.27400
C662        C  0.38400017  0.51745187  0.14684271     0.06200
C663        C  0.41101810  0.50202486  0.14881038     0.25900
C664        C  0.43173314  0.50365096  0.12570495    -0.11900
C665        C  0.42558104  0.52005188  0.09986747    -0.25800
C666        C  0.39839681  0.53531581  0.09788465     0.36700
C667        C  0.36114563  0.51491589  0.17039524     0.06300
F668        F  0.41741178  0.48556091  0.17315781    -0.19600
H669        H  0.45243238  0.49156781  0.12777081     0.16100
F670        F  0.39168893  0.55162155  0.07354707    -0.23300
H671        H  0.35713307  0.54602153  0.11925245     0.17900
C672        C  0.35008106  0.54028829  0.18481173     0.25900
C673        C  0.32503994  0.53827224  0.20316574    -0.11800
C674        C  0.31063181  0.51098605  0.20717760    -0.25900
C675        C  0.32312692  0.48526319  0.19463164     0.36800
C676        C  0.34823752  0.48725113  0.17647762    -0.27500
F677        F  0.36268548  0.56719369  0.18000778    -0.19600
H678        H  0.31554715  0.55834815  0.21234247     0.16100
F679        F  0.30960214  0.45857159  0.19810058    -0.23300
H680        H  0.35645233  0.46744456  0.16563221     0.17900
C681        C  0.66648791  0.51448554  0.12355695    -0.27400
C682        C  0.65408570  0.51837677  0.15199797     0.06200
C683        C  0.62380892  0.52520505  0.15420920     0.25900
C684        C  0.60613894  0.52642906  0.12883331    -0.11900
C685        C  0.61798942  0.52117588  0.10026568    -0.25800
C686        C  0.64871419  0.51593534  0.09790218     0.36700
C687        C  0.67256778  0.51430893  0.17916551     0.06300
F688        F  0.61119513  0.53074721  0.18096582    -0.19600
H689        H  0.58275153  0.53101583  0.13188548     0.16100
F690        F  0.66146618  0.51133810  0.07107631    -0.23300
H691        H  0.68989017  0.50943510  0.12127041     0.17900
C692        C  0.66413058  0.49417668  0.20157148     0.25900
C693        C  0.68362453  0.48760118  0.22495634    -0.11800
C694        C  0.71158746  0.50134972  0.22684712    -0.25900
C695        C  0.71913283  0.52279274  0.20547598     0.36800
C696        C  0.69987151  0.52907596  0.18189825    -0.27500
F697        F  0.63813106  0.47904300  0.19960408    -0.19600
H698        H  0.67779407  0.47020568  0.24044440     0.16100
F699        F  0.74650783  0.53537855  0.20564505    -0.23300
H700        H  0.70683664  0.54466356  0.16502578     0.17900
C701        C  0.82716139  0.58168668  0.98458654    -0.27400
C702        C  0.83334181  0.60721767  0.00165270     0.06200
C703        C  0.85955253  0.60728343  0.01876492     0.25900
C704        C  0.87979389  0.58361723  0.01702530    -0.11900
C705        C  0.87439398  0.55887095  0.99872915    -0.25800
C706        C  0.84733226  0.55777274  0.98316574     0.36700
C707        C  0.81350389  0.63414999  0.99974638     0.06300
F708        F  0.86576878  0.63028387  0.03716012    -0.19600
H709        H  0.90006680  0.58478583  0.02987075     0.16100
F710        F  0.84121342  0.53452132  0.96508594    -0.23300
H711        H  0.80723789  0.58079148  0.97118149     0.17900
C712        C  0.82540277  0.66266422  0.99439038     0.25900
C713        C  0.80669842  0.68694926  0.98840883    -0.11800
C714        C  0.77567079  0.68367715  0.98765763    -0.25900
C715        C  0.76367571  0.65553818  0.99409878     0.36800
C716        C  0.78234016  0.63121601  0.00022001    -0.27500
F717        F  0.85518800  0.66663219  0.99212898    -0.19600
H718        H  0.81657315  0.70793062  0.98212754     0.16100
F719        F  0.73397899  0.65092181  0.99165238    -0.23300
H720        H  0.77239753  0.60968289  0.00402273     0.17900
C721        C  0.82947250  0.26306961  0.01134474    -0.27400
C722        C  0.83344817  0.28157780  0.98657291     0.06200
C723        C  0.81559187  0.27687398  0.96143603     0.25900
C724        C  0.79253983  0.25605972  0.96213299    -0.11900
C725        C  0.78650045  0.23981374  0.98797404    -0.25800
C726        C  0.80594861  0.24258626  0.01222512     0.36700
C727        C  0.85396336  0.30751839  0.98806609     0.06300
F728        F  0.81917123  0.29382159  0.93685565    -0.19600
H729        H  0.77741130  0.25486868  0.94350135     0.16100
F730        F  0.80027999  0.22784503  0.03781299    -0.23300
H731        H  0.84303947  0.26617871  0.03091531     0.17900
C732        C  0.84330856  0.33645752  0.98299216     0.25900
C733        C  0.86243959  0.36093147  0.98463842    -0.11800
C734        C  0.89273117  0.35726691  0.99132106    -0.25900
C735        C  0.90330113  0.32816334  0.99669372     0.36800
C736        C  0.88402275  0.30373134  0.99528209    -0.27500
F737        F  0.81413476  0.34117038  0.97704822    -0.19600
H738        H  0.85347330  0.38281483  0.98041597     0.16100
F739        F  0.93222678  0.32312386  0.00354012    -0.23300
H740        H  0.89266997  0.28171542  0.99951984     0.17900
C741        C  0.08325931  0.62678288  0.98553417    -0.27400
C742        C  0.11383393  0.62052531  0.98620405     0.06200
C743        C  0.12291163  0.59064333  0.98696110     0.25900
C744        C  0.10192917  0.56775509  0.98675080    -0.11900
C745        C  0.07123456  0.57383327  0.98591287    -0.25800
C746        C  0.06215946  0.60383118  0.98523293     0.36700
C747        C  0.13617368  0.64499720  0.98731739     0.06300
F748        F  0.15212738  0.58344210  0.98893841    -0.19600
H749        H  0.10992109  0.54511449  0.98755764     0.16100
F750        F  0.03295181  0.61118421  0.98428291    -0.23300
H751        H  0.07567437  0.64957514  0.98503643     0.17900
C752        C  0.16141043  0.64459880  0.96887986     0.25900
C753        C  0.18436964  0.66507931  0.97316607    -0.11800
C754        C  0.18242553  0.68677151  0.99542765    -0.25900
C755        C  0.15630997  0.68873849  0.01228999     0.36800
C756        C  0.13339083  0.66799677  0.00825717    -0.27500
F757        F  0.16424929  0.62391361  0.94720445    -0.19600
H758        H  0.20436787  0.66320290  0.95994892     0.16100
F759        F  0.15400482  0.70920958  0.03420933    -0.23300
H760        H  0.11416874  0.66892671  0.02264033     0.17900
C761        C  0.10414185  0.32457700  0.99755719    -0.27400
C762        C  0.13288770  0.33374874  0.00495039     0.06200
C763        C  0.13876669  0.36431542  0.00785329     0.25900
C764        C  0.11607013  0.38517131  0.00367418    -0.11900
C765        C  0.08709490  0.37600555  0.99648668    -0.25800
C766        C  0.08146721  0.34528577  0.99339595     0.36700
C767        C  0.15698735  0.31149069  0.00775804     0.06300
F768        F  0.16665269  0.37408339  0.01384666    -0.19600
H769        H  0.12119241  0.40850248  0.00622480     0.16100
F770        F  0.05412174  0.33500327  0.98599792    -0.23300
H771        H  0.09922280  0.30119724  0.99497565     0.17900
C772        C  0.17590734  0.31139097  0.03248896     0.25900
C773        C  0.20149767  0.29390060  0.03239865    -0.11800
C774        C  0.20871639  0.27631190  0.00766137    -0.25900
C775        C  0.18805195  0.27379601  0.98448591     0.36800
C776        C  0.16237483  0.29134216  0.98457384    -0.27500
F777        F  0.17036459  0.32918153  0.05612093    -0.19600
H778        H  0.21693719  0.29581321  0.05071576     0.16100
F779        F  0.19406652  0.25675352  0.96044726    -0.23300
H780        H  0.14774767  0.29068715  0.96553536     0.17900
C781        C  0.83441784  0.42694255  0.87727975    -0.27400
C782        C  0.84452616  0.40735717  0.85531460     0.06200
C783        C  0.87360738  0.39619287  0.85703846     0.25900
C784        C  0.89332064  0.40756562  0.87810436    -0.11900
C785        C  0.88399294  0.42964415  0.89807220    -0.25800
C786        C  0.85399364  0.43810633  0.89848650     0.36700
C787        C  0.82932054  0.40835285  0.82647263     0.06300
F788        F  0.88359557  0.37656506  0.83649468    -0.19600
H789        H  0.91611752  0.39988014  0.87819214     0.16100
F790        F  0.84426723  0.45928457  0.91751389    -0.23300
H791        H  0.81224742  0.43620927  0.87600363     0.17900
C792        C  0.79887855  0.40214528  0.82356147     0.25900
C793        C  0.78297725  0.41372027  0.79951161    -0.11800
C794        C  0.79700576  0.43279569  0.77909144    -0.25900
C795        C  0.82790491  0.43716407  0.78129754     0.36800
C796        C  0.84385614  0.42416791  0.80410738    -0.27500
F797        F  0.78416152  0.38726816  0.84518547    -0.19600
H798        H  0.75924343  0.40997703  0.79835113     0.16100
F799        F  0.84218655  0.45755175  0.76438194    -0.23300
H800        H  0.86707344  0.43006014  0.80650727     0.17900
C801        C  0.12898340  0.48611037  0.87775535    -0.27400
C802        C  0.12300191  0.48110904  0.84786706     0.06200
C803        C  0.09420917  0.47350311  0.83876178     0.25900
C804        C  0.07162377  0.47052589  0.85983340    -0.11900
C805        C  0.07757363  0.47555111  0.89004532    -0.25800
C806        C  0.10662440  0.48369416  0.89868343     0.36700
C807        C  0.14718501  0.48565905  0.82676854     0.06300
F808        F  0.08808380  0.46885511  0.80968898    -0.19600
H809        H  0.04956792  0.46435217  0.85251325     0.16100
F810        F  0.11361226  0.49004558  0.92724906    -0.23300
H811        H  0.15105826  0.49259723  0.88483185     0.17900
C812        C  0.14722276  0.51080613  0.80857704     0.25900
C813        C  0.17273806  0.51826150  0.79283614    -0.11800
C814        C  0.19839947  0.50063490  0.79499012    -0.25900
C815        C  0.19800189  0.47498849  0.81264131     0.36800
C816        C  0.17252128  0.46767896  0.82853571    -0.27500
F817        F  0.12319540  0.52896757  0.80738213    -0.19600
H818        H  0.17270454  0.53818505  0.77942762     0.16100
F819        F  0.22209820  0.45697041  0.81436345    -0.23300
H820        H  0.17272887  0.44841221  0.84287301     0.17900
C821        C  0.13770756  0.47211904  0.09312941    -0.27400
C822        C  0.13247947  0.47789202  0.12308482     0.06200
C823        C  0.10318170  0.48069298  0.13337915     0.25900
C824        C  0.07942878  0.47861881  0.11357064    -0.11900
C825        C  0.08458033  0.47373387  0.08324576    -0.25800
C826        C  0.11413342  0.46986922  0.07333463     0.36700
C827        C  0.15784070  0.48302395  0.14291654     0.06300
F828        F  0.09763213  0.48678534  0.16230006    -0.19600
H829        H  0.05707045  0.48158742  0.12189402     0.16100
F830        F  0.12054417  0.46411814  0.04451167    -0.23300
H831        H  0.16022350  0.46969044  0.08499791     0.17900
C832        C  0.16159296  0.46612681  0.16872935     0.25900
C833        C  0.18497399  0.47242951  0.18794088    -0.11800
C834        C  0.20482965  0.49556778  0.18159374    -0.25900
C835        C  0.20157300  0.51193646  0.15538420     0.36800
C836        C  0.17821426  0.50558964  0.13613496    -0.27500
F837        F  0.14271842  0.44359505  0.17528689    -0.19600
H838        H  0.18744682  0.45948579  0.20800819     0.16100
F839        F  0.22004201  0.53490555  0.14917294    -0.23300
H840        H  0.17546119  0.51885383  0.11631698     0.17900
C841        C  0.84674269  0.41993024  0.11074017    -0.27400
C842        C  0.85331401  0.42898939  0.13973887     0.06200
C843        C  0.87924953  0.44537847  0.14523012     0.25900
C844        C  0.89739532  0.45386669  0.12180182    -0.11900
C845        C  0.89004413  0.44619762  0.09252366    -0.25800
C846        C  0.86490657  0.42842383  0.08723263     0.36700
C847        C  0.83060412  0.42649748  0.16300375     0.06300
F848        F  0.88604430  0.45488900  0.17295512    -0.19600
H849        H  0.91688444  0.46712090  0.12658702     0.16100
F850        F  0.85790838  0.41909337  0.05950211    -0.23300
H851        H  0.82687272  0.40715592  0.10622311     0.17900
C852        C  0.80279956  0.43949454  0.15807303     0.25900
C853        C  0.78389387  0.44479543  0.18166063    -0.11800
C854        C  0.79208935  0.43717990  0.21080999    -0.25900
C855        C  0.81850101  0.42092748  0.21518498     0.36800
C856        C  0.83779394  0.41596516  0.19138055    -0.27500
F857        F  0.79534288  0.45048893  0.13106899    -0.19600
H858        H  0.76423164  0.45780207  0.17708182     0.16100
F859        F  0.82652017  0.41143283  0.24256647    -0.23300
H860        H  0.85904988  0.40543510  0.19536349     0.17900
C861        C  0.54088459  0.32330667  0.83512129    -0.27400
C862        C  0.51848957  0.34497641  0.83558803     0.06200
C863        C  0.49554085  0.34338822  0.81445357     0.25900
C864        C  0.49457274  0.31998474  0.79391628    -0.11900
C865        C  0.51640339  0.29774282  0.79411957    -0.25800
C866        C  0.53988118  0.29990276  0.81466313     0.36700
C867        C  0.51875535  0.36873213  0.85854048     0.06300
F868        F  0.47303638  0.36340904  0.81494450    -0.19600
H869        H  0.47576417  0.31820862  0.77905935     0.16100
F870        F  0.56106925  0.27850813  0.81584483    -0.23300
H871        H  0.55882390  0.32417438  0.85109165     0.17900
C872        C  0.51677541  0.36183584  0.88886734     0.25900
C873        C  0.51660785  0.38445970  0.91025360    -0.11800
C874        C  0.51864775  0.41452214  0.90197831    -0.25900
C875        C  0.52099652  0.42123083  0.87140955     0.36800
C876        C  0.52082048  0.39857614  0.85012201    -0.27500
F877        F  0.51429311  0.33320468  0.89779502    -0.19600
H878        H  0.51474801  0.37834374  0.93336816     0.16100
F879        F  0.52371098  0.44963319  0.86181644    -0.23300
H880        H  0.52259460  0.40434453  0.82689776     0.17900
C881        C  0.51577749  0.66398100  0.79253419    -0.27400
C882        C  0.53376838  0.67028692  0.81729234     0.06200
C883        C  0.55016876  0.69697445  0.81719382     0.25900
C884        C  0.54610775  0.71795660  0.79452869    -0.11900
C885        C  0.52631409  0.71248077  0.77110760    -0.25800
C886        C  0.51212349  0.68475256  0.76971521     0.36700
C887        C  0.53376540  0.64964799  0.84342047     0.06300
F888        F  0.56948971  0.70322735  0.83940115    -0.19600
H889        H  0.55687108  0.73936590  0.79634416     0.16100
F890        F  0.49257397  0.67887158  0.74758309    -0.23300
H891        H  0.50297127  0.64367333  0.79167497     0.17900
C892        C  0.53096415  0.66021658  0.87275344     0.25900
C893        C  0.52887918  0.64040272  0.89670286    -0.11800
C894        C  0.52869709  0.60951576  0.89216284    -0.25900
C895        C  0.53142646  0.59902887  0.86272608     0.36800
C896        C  0.53415977  0.61881396  0.83895168    -0.27500
F897        F  0.52860903  0.68969171  0.87832548    -0.19600
H898        H  0.52663536  0.64938492  0.91883515     0.16100
F899        F  0.53103892  0.56959173  0.85651841    -0.23300
H900        H  0.53624536  0.60987624  0.81677925     0.17900
C901        C  0.55048382  0.63114382  0.14370968    -0.27400
C902        C  0.54138957  0.66057612  0.13962408     0.06200
C903        C  0.53160293  0.66949374  0.11131312     0.25900
C904        C  0.52950134  0.64872497  0.08815491    -0.11900
C905        C  0.53686535  0.61875890  0.09292341    -0.25800
C906        C  0.54809158  0.61044424  0.12088079     0.36700
C907        C  0.53933873  0.68055633  0.16580361     0.06300
F908        F  0.52243993  0.69776920  0.10648727    -0.19600
H909        H  0.52092600  0.65582399  0.06689260     0.16100
F910        F  0.55648625  0.58210598  0.12645929    -0.23300
H911        H  0.55865094  0.62389034  0.16508792     0.17900
C912        C  0.52395403  0.67109938  0.19128443     0.25900
C913        C  0.51956019  0.69042211  0.21507196    -0.11800
C914        C  0.53011474  0.71960683  0.21393093    -0.25900
C915        C  0.54662837  0.72880402  0.18911631     0.36800
C916        C  0.55130601  0.70934963  0.16528598    -0.27500
F917        F  0.51089921  0.64397535  0.19215163    -0.19600
H918        H  0.50566192  0.68339180  0.23335772     0.16100
F919        F  0.55595140  0.75735124  0.18690210    -0.23300
H920        H  0.56329901  0.71710244  0.14599433     0.17900
C921        C  0.49649163  0.34899680  0.18440282    -0.27400
C922        C  0.52257172  0.35457277  0.16824631     0.06200
C923        C  0.54677207  0.33514449  0.17121161     0.25900
C924        C  0.54424657  0.30962581  0.18860162    -0.11900
C925        C  0.51750924  0.30291995  0.20315835    -0.25800
C926        C  0.49385278  0.32321148  0.20162031     0.36700
C927        C  0.52313145  0.37819413  0.14543737     0.06300
F928        F  0.57223042  0.33998862  0.15585747    -0.19600
H929        H  0.56251760  0.29399163  0.18911683     0.16100
F930        F  0.46735671  0.31669059  0.21438545    -0.23300
H931        H  0.47749731  0.36355462  0.18204500     0.17900
C932        C  0.52435907  0.37046650  0.11534552     0.25900
C933        C  0.52389671  0.39238815  0.09351270    -0.11800
C934        C  0.52247651  0.42266696  0.10106097    -0.25900
C935        C  0.52215828  0.43040128  0.13144025     0.36800
C936        C  0.52205930  0.40826254  0.15332276    -0.27500
F937        F  0.52536171  0.34154373  0.10702413    -0.19600
H938        H  0.52457735  0.38546671  0.07055360     0.16100
F939        F  0.52185934  0.45921322  0.14015931    -0.23300
H940        H  0.52138107  0.41457209  0.17646451     0.17900
C941        C  0.63771731  0.06902847  0.98618141    -0.27400
C942        C  0.63272501  0.09867293  0.97806960     0.06200
C943        C  0.60361536  0.10759203  0.97099376     0.25900
C944        C  0.58007777  0.08732141  0.97240862    -0.11900
C945        C  0.58491672  0.05763961  0.98086318    -0.25800
C946        C  0.61421458  0.04869100  0.98757849     0.36700
C947        C  0.65747863  0.12061269  0.97872174     0.06300
F948        F  0.59768731  0.13623793  0.96386663    -0.19600
H949        H  0.55793264  0.09504001  0.96707754     0.16100
F950        F  0.62021473  0.02051671  0.99631033    -0.23300
H951        H  0.65992591  0.06165691  0.99173866     0.17900
C952        C  0.67437998  0.12475327  0.00464570     0.25900
C953        C  0.69495304  0.14802431  0.00654067    -0.11800
C954        C  0.69921350  0.16743792  0.98263148    -0.25900
C955        C  0.68361642  0.16227929  0.95612689     0.36800
C956        C  0.66298339  0.13904546  0.95421392    -0.27500
F957        F  0.66926431  0.10783096  0.02897372    -0.19600
H958        H  0.70605137  0.15218095  0.02742412     0.16100
F959        F  0.68693300  0.18094289  0.93277993    -0.23300
H960        H  0.65045653  0.13612261  0.93393613     0.17900
C961        C  0.34405160  0.83400502  0.98226357    -0.27400
C962        C  0.31626002  0.84461798  0.99188903     0.06200
C963        C  0.31410708  0.87428936  0.00126208     0.25900
C964        C  0.33926428  0.89258334  0.00155407    -0.11900
C965        C  0.36721692  0.88184335  0.99244666    -0.25800
C966        C  0.36919319  0.85236208  0.98231335     0.36700
C967        C  0.29028959  0.82409375  0.99377020     0.06300
F968        F  0.28757745  0.88574530  0.00981599    -0.19600
H969        H  0.33683547  0.91524711  0.00914515     0.16100
F970        F  0.39524318  0.84135825  0.97190322    -0.23300
H971        H  0.34648310  0.81119036  0.97516232     0.17900
C972        C  0.28357686  0.80434550  0.97052585     0.25900
C973        C  0.26272603  0.78168971  0.97464223    -0.11800
C974        C  0.24856547  0.77789203  0.00207200    -0.25900
C975        C  0.25325849  0.79909892  0.02441586     0.36800
C976        C  0.27382094  0.82206379  0.02020223    -0.27500
F977        F  0.29848551  0.80574417  0.94444289    -0.19600
H978        H  0.26003724  0.76513960  0.95743772     0.16100
F979        F  0.24038390  0.79571156  0.05138690    -0.23300
H980        H  0.27859800  0.83677951  0.03855415     0.17900
C981        C  0.62333829  0.85032390  0.00353986    -0.27400
C982        C  0.61829634  0.82122177  0.99377596     0.06200
C983        C  0.58878863  0.81271076  0.98740028     0.25900
C984        C  0.56539392  0.83356773  0.98876167    -0.11900
C985        C  0.57083506  0.86323997  0.99690155    -0.25800
C986        C  0.60012680  0.87090651  0.00543292     0.36700
C987        C  0.64424551  0.80085886  0.98878100     0.06300
F988        F  0.58275314  0.78462419  0.97846265    -0.19600
H989        H  0.54323511  0.82672945  0.98242153     0.16100
F990        F  0.60664735  0.89851630  0.01551636    -0.23300
H991        H  0.64558131  0.85731362  0.00946855     0.17900
C992        C  0.66849174  0.81023788  0.97139241     0.25900
C993        C  0.69250557  0.79121767  0.96593787    -0.11800
C994        C  0.69326648  0.76230330  0.97760058    -0.25900
C995        C  0.66934093  0.75294891  0.99540892     0.36800
C996        C  0.64513037  0.77207156  0.00092854    -0.27500
F997        F  0.66831359  0.83735481  0.95831596    -0.19600
H998        H  0.71019221  0.79871727  0.95149630     0.16100
F999        F  0.66853392  0.72481556  0.00602436    -0.23300
H1000       H  0.62686726  0.76425243  0.01442677     0.17900
C1001       C  0.33645730  0.09623681  0.98225486    -0.27400
C1002       C  0.34684857  0.12523711  0.97785959     0.06200
C1003       C  0.37773565  0.12990685  0.97579726     0.25900
C1004       C  0.39755495  0.10598838  0.97767460    -0.11900
C1005       C  0.38721496  0.07683547  0.98206521    -0.25800
C1006       C  0.35621458  0.07233808  0.98441790     0.36700
C1007       C  0.32556860  0.15060259  0.97736056     0.06300
F1008       F  0.38892792  0.15774439  0.97319782    -0.19600
H1009       H  0.42112723  0.11044919  0.97600303     0.16100
F1010       F  0.34473181  0.04492941  0.98919529    -0.23300
H1011       H  0.31284410  0.09204695  0.98413767     0.17900
C1012       C  0.32771619  0.17312546  0.95587777     0.25900
C1013       C  0.31046423  0.19880718  0.95836040    -0.11800
C1014       C  0.29053734  0.20247683  0.98206559    -0.25900
C1015       C  0.28641435  0.17892230  0.00198017     0.36800
C1016       C  0.30381891  0.15324582  0.99961907    -0.27500
F1017       F  0.34706752  0.17072464  0.93294826    -0.19600
H1018       H  0.31377555  0.21661258  0.94258871     0.16100
F1019       F  0.26755173  0.18179441  0.02524513    -0.23300
H1020       H  0.30151258  0.13615279  0.01630397     0.17900
C1021       C  0.48943626  0.08253679  0.83851231    -0.27400
C1022       C  0.47834102  0.11024182  0.84746726     0.06200
C1023       C  0.46587707  0.11358419  0.87561797     0.25900
C1024       C  0.46554939  0.08983854  0.89508711    -0.11900
C1025       C  0.47768054  0.06229947  0.88688312    -0.25800
C1026       C  0.48892217  0.05846303  0.85807496     0.36700
C1027       C  0.48276863  0.13671319  0.82925517     0.06300
F1028       F  0.45574541  0.14037952  0.88494084    -0.19600
H1029       H  0.45639400  0.09328347  0.91701836     0.16100
F1030       F  0.50084178  0.03218309  0.84946048    -0.23300
H1031       H  0.49929260  0.07990072  0.81678381     0.17900
C1032       C  0.51161738  0.14758918  0.82488244     0.25900
C1033       C  0.51584141  0.17473809  0.81085416    -0.11800
C1034       C  0.49136093  0.19117302  0.80109976    -0.25900
C1035       C  0.46247673  0.18043905  0.80547015     0.36800
C1036       C  0.45821252  0.15330062  0.81966795    -0.27500
F1037       F  0.53555846  0.13238522  0.83506478    -0.19600
H1038       H  0.53820605  0.18282017  0.80720414     0.16100
F1039       F  0.43860096  0.19620833  0.79601967    -0.23300
H1040       H  0.43584603  0.14532486  0.82351319     0.17900
C1041       C  0.42055630  0.79178855  0.81741825    -0.27400
C1042       C  0.42715130  0.82186500  0.82161166     0.06200
C1043       C  0.44209078  0.83750369  0.79914968     0.25900
C1044       C  0.45411448  0.82232055  0.77522809    -0.11900
C1045       C  0.45115842  0.79139483  0.77300013    -0.25800
C1046       C  0.43191455  0.77669792  0.79285015     0.36700
C1047       C  0.42562883  0.83520711  0.85134119     0.06300
F1048       F  0.44894199  0.86666840  0.80235157    -0.19600
H1049       H  0.46860496  0.83450701  0.76048920     0.16100
F1050       F  0.42617627  0.74728991  0.78993522    -0.23300
H1051       H  0.40858359  0.77955788  0.83426201     0.17900
C1052       C  0.41526525  0.86431857  0.85463816     0.25900
C1053       C  0.42541589  0.88149705  0.87805160    -0.11800
C1054       C  0.44538516  0.86968967  0.89886731    -0.25900
C1055       C  0.45198615  0.83930741  0.89825355     0.36800
C1056       C  0.44224497  0.82215134  0.87434095    -0.27500
F1057       F  0.39804349  0.87708127  0.83349641    -0.19600
H1058       H  0.41876145  0.90457997  0.87910314     0.16100
F1059       F  0.46995164  0.82695272  0.91901192    -0.23300
H1060       H  0.45023198  0.79957818  0.87228940     0.17900
C1061       C  0.42574247  0.87397577  0.13968717    -0.27400
C1062       C  0.43570308  0.84464831  0.14193342     0.06200
C1063       C  0.45140317  0.83202174  0.11799991     0.25900
C1064       C  0.45922611  0.84945213  0.09355205    -0.11900
C1065       C  0.45150139  0.87958949  0.09269344    -0.25800
C1066       C  0.43346545  0.89125258  0.11530732     0.36700
C1067       C  0.43455896  0.82922971  0.17083574     0.06300
F1068       F  0.46102814  0.80350325  0.11916012    -0.19600
H1069       H  0.47243615  0.83976246  0.07598728     0.16100
F1070       F  0.42336241  0.91949728  0.11388357    -0.23300
H1071       H  0.41298294  0.88389342  0.15746023     0.17900
C1072       C  0.44722603  0.84287168  0.19585606     0.25900
C1073       C  0.45612021  0.82569669  0.21986962    -0.11800
C1074       C  0.45227627  0.79475555  0.21945195    -0.25900
C1075       C  0.43443633  0.78222064  0.19703547     0.36800
C1076       C  0.42614238  0.79931922  0.17256547    -0.27500
F1077       F  0.45481711  0.87201272  0.19555215    -0.19600
H1078       H  0.46933746  0.83633754  0.23684484     0.16100
F1079       F  0.42778972  0.75284973  0.19724636    -0.23300
H1080       H  0.41524673  0.78869389  0.15398996     0.17900
C1081       C  0.48823372  0.09710023  0.12790054    -0.27400
C1082       C  0.49685545  0.12458719  0.11613773     0.06200
C1083       C  0.50164342  0.12732477  0.08559642     0.25900
C1084       C  0.49791995  0.10281113  0.06718145    -0.11900
C1085       C  0.48937264  0.07506140  0.07882907    -0.25800
C1086       C  0.48437115  0.07252297  0.10948621     0.36700
C1087       C  0.50111106  0.15008325  0.13607772     0.06300
F1088       F  0.51071597  0.15345030  0.07367692    -0.19600
H1089       H  0.50214375  0.10560246  0.04373198     0.16100
F1090       F  0.47540710  0.04653895  0.12171664    -0.23300
H1091       H  0.48423052  0.09476832  0.15144500     0.11300
C1092       C  0.48568502  0.17679901  0.13148919     0.25900
C1093       C  0.48859846  0.20002481  0.15171072    -0.11800
C1094       C  0.50665483  0.19678699  0.17682529    -0.25900
C1095       C  0.52270162  0.17035255  0.18095088     0.36800
C1096       C  0.51989310  0.14721551  0.16068120    -0.27500
F1097       F  0.46669802  0.17988545  0.10833610    -0.19600
H1098       H  0.47583765  0.22012569  0.14839933     0.16100
F1099       F  0.54095991  0.16686799  0.20463476    -0.23300
H1100       H  0.53215404  0.12685994  0.16432261     0.17900
C1101       C  0.28532140  0.98559713  0.15513285    -0.27400
C1102       C  0.30697791  0.96385033  0.14978304     0.06200
C1103       C  0.30698341  0.93778752  0.16678605     0.25900
C1104       C  0.28726684  0.93477439  0.19047155    -0.11900
C1105       C  0.26766335  0.95790411  0.19777444    -0.25800
C1106       C  0.26581443  0.98271949  0.17909327     0.36700
C1107       C  0.33106160  0.96945907  0.12830235     0.06300
F1108       F  0.32738095  0.91619146  0.16168443    -0.19600
H1109       H  0.28955425  0.91586669  0.20510815     0.16100
F1110       F  0.24788428  0.00580907  0.18633972    -0.23300
H1111       H  0.28506567  0.00582013  0.14219106     0.17900
C1112       C  0.32478323  0.97353586  0.09822470     0.25900
C1113       C  0.34793052  0.97716000  0.07795231    -0.11800
C1114       C  0.37785813  0.97730552  0.08733394    -0.25900
C1115       C  0.38387010  0.97498079  0.11789585     0.36800
C1116       C  0.36065648  0.97069183  0.13803838    -0.27500
F1117       F  0.29631876  0.97287453  0.08833590    -0.19600
H1118       H  0.34228496  0.97920940  0.05472897     0.16100
F1119       F  0.41207868  0.97631732  0.12841460    -0.23300
H1120       H  0.36576367  0.96825429  0.16136356     0.17900
C1121       C  0.63882033  0.92465584  0.79662142    -0.27400
C1122       C  0.64343209  0.93709527  0.82483760     0.06200
C1123       C  0.67113099  0.95034507  0.83096645     0.25900
C1124       C  0.69260930  0.95310612  0.80870540    -0.11900
C1125       C  0.68703622  0.94277541  0.77994179    -0.25800
C1126       C  0.66032734  0.92756585  0.77432304     0.36700
C1127       C  0.61879120  0.93849748  0.84696704     0.06300
F1128       F  0.67642185  0.96322214  0.85762300    -0.19600
H1129       H  0.71252265  0.96582240  0.81320085     0.16100
F1130       F  0.65387656  0.91806913  0.74651706    -0.23300
H1131       H  0.61794190  0.91392970  0.79140576     0.17900
C1132       C  0.59037715  0.94899274  0.83900341     0.25900
C1133       C  0.56830588  0.95292742  0.86055399    -0.11800
C1134       C  0.57399132  0.94672995  0.89056755    -0.25900
C1135       C  0.60214326  0.93532380  0.89832978     0.36800
C1136       C  0.62410188  0.93123219  0.87675053    -0.27500
F1137       F  0.58428205  0.95685013  0.81062559    -0.19600
H1138       H  0.54696685  0.96170864  0.85378180     0.16100
F1139       F  0.60861567  0.92800430  0.92677178    -0.23300
H1140       H  0.64552471  0.92259171  0.88342858     0.17900
C1141       C  0.35614563  0.96813119  0.84205108    -0.27400
C1142       C  0.32710532  0.97365367  0.85208343     0.06200
C1143       C  0.32251695  0.97965814  0.88219536     0.25900
C1144       C  0.34646804  0.97969980  0.90192961    -0.11900
C1145       C  0.37568739  0.97388813  0.89217936    -0.25800
C1146       C  0.38026718  0.96843068  0.86172049     0.36700
C1147       C  0.30194167  0.97334784  0.83081621     0.06300
F1148       F  0.29473278  0.98471824  0.89269993    -0.19600
H1149       H  0.34192582  0.98410565  0.92506430     0.16100
F1150       F  0.40785781  0.96315789  0.85081200    -0.23300
H1151       H  0.36016106  0.96378058  0.81879087     0.17900
C1152       C  0.28438699  0.99878705  0.82625438     0.25900
C1153       C  0.26429039  0.99986639  0.80256486    -0.11800
C1154       C  0.26113762  0.97551673  0.78343231    -0.25900
C1155       C  0.27679370  0.94927573  0.78958631     0.36800
C1156       C  0.29712536  0.94829308  0.81298895    -0.27500
F1157       F  0.28872204  0.02352270  0.84284490    -0.19600
H1158       H  0.25323258  0.02060409  0.79752377     0.16100
F1159       F  0.27501497  0.92583864  0.77077829    -0.23300
H1160       H  0.31033117  0.92847024  0.81622261     0.17900
C1161       C  0.47291467  0.18952906  0.31429562    -0.27400
C1162       C  0.49919484  0.18517710  0.33049093     0.06200
C1163       C  0.52433190  0.20245008  0.32349982     0.25900
C1164       C  0.52366853  0.22208127  0.29950406    -0.11900
C1165       C  0.49816048  0.22456383  0.28190153    -0.25800
C1166       C  0.47235751  0.20903040  0.29019601     0.36700
C1167       C  0.50110200  0.16095366  0.35276044     0.06300
F1168       F  0.55042990  0.19826037  0.33794946    -0.19600
H1169       H  0.54397771  0.23315728  0.29293965     0.16100
F1170       F  0.44742987  0.21080089  0.27336049    -0.23300
H1171       H  0.45321948  0.17673163  0.31943786     0.17900
C1172       C  0.51319709  0.16616496  0.38094822     0.25900
C1173       C  0.51665777  0.14288972  0.40099311    -0.11800
C1174       C  0.50792115  0.11385112  0.39365694    -0.25900
C1175       C  0.49530327  0.10859117  0.36558307     0.36800
C1176       C  0.49190689  0.13201040  0.34540908    -0.27500
F1177       F  0.52124309  0.19390999  0.38938678    -0.19600
H1178       H  0.52630522  0.14770008  0.42244546     0.16100
F1179       F  0.48568437  0.08111621  0.35783185    -0.23300
H1180       H  0.48250032  0.12744845  0.32379681     0.17900
C1181       C  0.54658126  0.86379388  0.38750431    -0.27400
C1182       C  0.53543667  0.86628236  0.35866942     0.06200
C1183       C  0.52347294  0.89358876  0.34933606     0.25900
C1184       C  0.52231511  0.91780161  0.36884537    -0.11900
C1185       C  0.53289021  0.91515629  0.39804776    -0.25800
C1186       C  0.54555482  0.88790053  0.40695996     0.36700
C1187       C  0.53458818  0.83984667  0.33911579     0.06300
F1188       F  0.51164439  0.89640444  0.32181488    -0.19600
H1189       H  0.51225716  0.93830785  0.36139329     0.16100
F1190       F  0.55704448  0.88441648  0.43454139    -0.23300
H1191       H  0.55595507  0.84298762  0.39503350     0.17900
C1192       C  0.54821683  0.84016072  0.31111830     0.25900
C1193       C  0.54375776  0.81665130  0.29135653    -0.11800
C1194       C  0.52526641  0.79278295  0.29900848    -0.25900
C1195       C  0.51322421  0.79153816  0.32768795     0.36800
C1196       C  0.51820936  0.81475192  0.34770573    -0.27500
F1197       F  0.56458973  0.86385814  0.30236502    -0.19600
H1198       H  0.55262692  0.81831019  0.26911120     0.16100
F1199       F  0.49469590  0.76909591  0.33542220    -0.23300
H1200       H  0.50760324  0.81408100  0.36923004     0.17900
C1201       C  0.50196146  0.17184632  0.60162299    -0.27400
C1202       C  0.50911616  0.16649524  0.63137823     0.06200
C1203       C  0.51456576  0.13710452  0.64035810     0.25900
C1204       C  0.51393670  0.11377830  0.61977292    -0.11900
C1205       C  0.50852371  0.11915557  0.58953584    -0.25800
C1206       C  0.50174104  0.14860265  0.58086365     0.36700
C1207       C  0.51011555  0.19123311  0.65333079     0.06300
F1208       F  0.52013653  0.13088540  0.66924181    -0.19600
H1209       H  0.51818586  0.09148314  0.62756623     0.16100
F1210       F  0.49463718  0.15510617  0.55237345    -0.23300
H1211       H  0.49696887  0.19419177  0.59435367     0.17900
C1212       C  0.53624896  0.19727639  0.66934242     0.25900
C1213       C  0.53571669  0.21678156  0.69356660    -0.11800
C1214       C  0.50910924  0.23042110  0.70249298    -0.25900
C1215       C  0.48353772  0.22617569  0.68502846     0.36800
C1216       C  0.48416770  0.20700587  0.66048148    -0.27500
F1217       F  0.56187144  0.18288037  0.66268265    -0.19600
H1218       H  0.55543242  0.21891809  0.70716457     0.16100
F1219       F  0.45720184  0.23798880  0.69368288    -0.23300
H1220       H  0.46378904  0.20270391  0.64847386     0.17900
C1221       C  0.51496827  0.81560199  0.64308720    -0.27400
C1222       C  0.53389807  0.83955457  0.64980327     0.06200
C1223       C  0.54973719  0.83877670  0.67674640     0.25900
C1224       C  0.54468336  0.81594931  0.69737512    -0.11900
C1225       C  0.52405643  0.79330736  0.69143903    -0.25800
C1226       C  0.51002650  0.79280870  0.66364155     0.36700
C1227       C  0.53474451  0.86609781  0.62976653     0.06300
F1228       F  0.56934227  0.86059631  0.68356861    -0.19600
H1229       H  0.55540040  0.81703903  0.71883163     0.16100
F1230       F  0.48975718  0.77145014  0.65729969    -0.23300
H1231       H  0.50239541  0.81548988  0.62264050     0.17900
C1232       C  0.53729474  0.86268504  0.59894189     0.25900
C1233       C  0.53451641  0.88716622  0.58008340    -0.11800
C1234       C  0.52943511  0.91609367  0.59113335    -0.25900
C1235       C  0.52770924  0.91966036  0.62211870     0.36800
C1236       C  0.53032203  0.89494047  0.64109028    -0.27500
F1237       F  0.54261953  0.83559418  0.58690496    -0.19600
H1238       H  0.53632595  0.88318913  0.55650712     0.16100
F1239       F  0.52277811  0.94677816  0.63416972    -0.23300
H1240       H  0.52786927  0.89824949  0.66471811     0.17900
C1241       C  0.32618418  0.01607583  0.33344113    -0.27400
C1242       C  0.35344822  0.00137878  0.33005387     0.06200
C1243       C  0.35623609  0.97873220  0.30897191     0.25900
C1244       C  0.33164639  0.97015814  0.29235505    -0.11900
C1245       C  0.30404569  0.98429864  0.29619774    -0.25800
C1246       C  0.30163911  0.00776126  0.31654091     0.36700
C1247       C  0.37715663  0.00633430  0.35178419     0.06300
F1248       F  0.38219708  0.96374826  0.30570561    -0.19600
H1249       H  0.33401966  0.95195051  0.27687346     0.16100
F1250       F  0.27575265  0.02281119  0.31988999    -0.23300
H1251       H  0.32380042  0.03356205  0.34973779     0.17900
C1252       C  0.40626763  0.01352370  0.34325817     0.25900
C1253       C  0.42860872  0.01554027  0.36465409    -0.11800
C1254       C  0.42214496  0.01021673  0.39468806    -0.25900
C1255       C  0.39274046  0.00326902  0.40294016     0.36800
C1256       C  0.37061880  0.00152717  0.38164946    -0.27500
F1257       F  0.41301990  0.01857311  0.31439473    -0.19600
H1258       H  0.45093020  0.02114579  0.35768837     0.16100
F1259       F  0.38525365  0.99720206  0.43143138    -0.23300
H1260       H  0.34834607  0.99544036  0.38842144     0.17900
C1261       C  0.61726969  0.07855648  0.63567347    -0.27400
C1262       C  0.64647077  0.06805089  0.63773613     0.06200
C1263       C  0.65935357  0.05361267  0.61317371     0.25900
C1264       C  0.64185696  0.04597674  0.58893138    -0.11900
C1265       C  0.61148132  0.05234639  0.58919400    -0.25800
C1266       C  0.59972271  0.07050058  0.61164588     0.36700
C1267       C  0.65872727  0.06178646  0.66723458     0.06300
F1268       F  0.68746696  0.04282434  0.61442951    -0.19600
H1269       H  0.65143704  0.03268028  0.57136925     0.16100
F1270       F  0.57078100  0.07873085  0.61135091    -0.23300
H1271       H  0.60706801  0.08984455  0.65426511     0.17900
C1272       C  0.68902574  0.06571434  0.67313186     0.25900
C1273       C  0.70314266  0.04723780  0.69357860    -0.11800
C1274       C  0.68710660  0.02465226  0.70799681    -0.25900
C1275       C  0.65591366  0.02410669  0.70526525     0.36800
C1276       C  0.64192366  0.04299026  0.68541942    -0.27500
F1277       F  0.70544183  0.08473298  0.65656127    -0.19600
H1278       H  0.72700311  0.04882578  0.69613467     0.16100
F1279       F  0.63919631  0.00267307  0.71821162    -0.23300
H1280       H  0.61845286  0.03964345  0.68123956     0.17900
C1281       C  0.32216243  0.02926108  0.65057857    -0.27400
C1282       C  0.34441669  0.00744047  0.64842010     0.06200
C1283       C  0.34105646  0.98060008  0.66394889     0.25900
C1284       C  0.31613066  0.97596540  0.68150954    -0.11900
C1285       C  0.29396198  0.99763532  0.68338164    -0.25800
C1286       C  0.29681955  0.02423189  0.66765865     0.36700
C1287       C  0.37030005  0.01195824  0.62886156     0.06300
F1288       F  0.36136167  0.95847450  0.66147595    -0.19600
H1289       H  0.31392157  0.95528328  0.69353870     0.16100
F1290       F  0.27543152  0.04539022  0.66927345    -0.23300
H1291       H  0.32442562  0.05019949  0.63905812     0.17900
C1292       C  0.36627282  0.02187613  0.59966217     0.25900
C1293       C  0.39028686  0.02306414  0.58034484    -0.11800
C1294       C  0.41877939  0.01431876  0.58961410    -0.25900
C1295       C  0.42311605  0.00567052  0.61924137     0.36800
C1296       C  0.39900976  0.00461029  0.63866326    -0.27500
F1297       F  0.33890197  0.02902817  0.58926257    -0.19600
H1298       H  0.38637969  0.03037752  0.55782399     0.16100
F1299       F  0.45026190  0.99714645  0.62919047    -0.23300
H1300       H  0.40267404  0.99747839  0.66127785     0.17900
C1301       C  0.67488513  0.99466805  0.13771691    -0.27400
C1302       C  0.65571046  0.97099123  0.14430189     0.06200
C1303       C  0.66153594  0.95358008  0.16951631     0.25900
C1304       C  0.68519371  0.96084352  0.18851375    -0.11900
C1305       C  0.70311946  0.98577201  0.18291432    -0.25800
C1306       C  0.69806630  0.00227984  0.15696389     0.36700
C1307       C  0.62924544  0.96583548  0.12513955     0.06300
F1308       F  0.64388741  0.93012795  0.17621196    -0.19600
H1309       H  0.68824597  0.94821569  0.20869479     0.16100
F1310       F  0.71440993  0.02690736  0.15121645    -0.23300
H1311       H  0.67088220  0.00830341  0.11837009     0.17900
C1312       C  0.60013708  0.96984926  0.13586828     0.25900
C1313       C  0.57567716  0.96905208  0.11636703    -0.11800
C1314       C  0.57976268  0.96420680  0.08576464    -0.25900
C1315       C  0.60909279  0.95906225  0.07555203     0.36800
C1316       C  0.63327433  0.96004412  0.09497171    -0.27500
F1317       F  0.59553148  0.97610739  0.16491790    -0.19600
H1318       H  0.55365451  0.97305583  0.12512948     0.16100
F1319       F  0.61486911  0.95374182  0.04654174    -0.23300
H1320       H  0.65547120  0.95692681  0.08624115     0.17900
C1321       C  0.65484857  0.04801169  0.29670487    -0.27400
C1322       C  0.66788121  0.06340041  0.32031112     0.06200
C1323       C  0.69673212  0.07480421  0.31702720     0.25900
C1324       C  0.71307825  0.06830689  0.29138758    -0.11900
C1325       C  0.70101217  0.04985527  0.26919192    -0.25800
C1326       C  0.67105094  0.04113312  0.27153982     0.36700
C1327       C  0.65216828  0.06269314  0.34902559     0.06300
F1328       F  0.70956263  0.09073067  0.33910410    -0.19600
H1329       H  0.73594984  0.07561609  0.28997145     0.16100
F1330       F  0.65834419  0.02245402  0.25165170    -0.23300
H1331       H  0.63278048  0.03867656  0.29887795     0.17900
C1332       C  0.62177803  0.06941524  0.34974734     0.25900
C1333       C  0.60410799  0.05897464  0.37271921    -0.11800
C1334       C  0.61636308  0.04221296  0.39595577    -0.25900
C1335       C  0.64737570  0.03815889  0.39695609     0.36800
C1336       C  0.66510583  0.04813472  0.37339630    -0.27500
F1337       F  0.60878601  0.08418847  0.32696615    -0.19600
H1338       H  0.58051215  0.06364398  0.37198975     0.16100
F1339       F  0.66027148  0.02303202  0.41954333    -0.23300
H1340       H  0.68850008  0.04252218  0.37314075     0.17900
C1341       C  0.36690894  0.81428940  0.47706299    -0.27400
C1342       C  0.36611159  0.83714580  0.49828691     0.06200
C1343       C  0.34304070  0.83725566  0.51927187     0.25900
C1344       C  0.32034061  0.81607625  0.51783779    -0.11900
C1345       C  0.31997033  0.79444129  0.49536016    -0.25800
C1346       C  0.34396949  0.79317700  0.47547848     0.36700
C1347       C  0.38779449  0.86211728  0.49702729     0.06300
F1348       F  0.34187568  0.85855026  0.54050883    -0.19600
H1349       H  0.30193668  0.81768351  0.53321603     0.16100
F1350       F  0.34385511  0.77327174  0.45292962    -0.23300
H1351       H  0.38438352  0.81386503  0.46058862     0.17900
C1352       C  0.41852308  0.85719343  0.49921647     0.25900
C1353       C  0.43851116  0.88109456  0.49815426    -0.11800
C1354       C  0.42838776  0.91049879  0.49455157    -0.25900
C1355       C  0.39745399  0.91518560  0.49172043     0.36800
C1356       C  0.37756817  0.89129510  0.49318044    -0.27500
F1357       F  0.42917594  0.82931079  0.50309801    -0.19600
H1358       H  0.46200811  0.87649338  0.50037760     0.16100
F1359       F  0.38619430  0.94276382  0.48727962    -0.23300
H1360       H  0.35399098  0.89556112  0.49095048     0.17900
C1361       C  0.63807994  0.87246889  0.51681559    -0.27400
C1362       C  0.66668742  0.87616728  0.50500303     0.06200
C1363       C  0.67465842  0.90456783  0.49438565     0.25900
C1364       C  0.65390626  0.92799567  0.49420975    -0.11900
C1365       C  0.62466598  0.92363815  0.50426860    -0.25800
C1366       C  0.61740312  0.89570274  0.51658357     0.36700
C1367       C  0.68657231  0.84965211  0.50118143     0.06300
F1368       F  0.70181576  0.90925155  0.48226064    -0.19600
H1369       H  0.66031053  0.94912372  0.48477358     0.16100
F1370       F  0.59003515  0.89049265  0.52807233    -0.23300
H1371       H  0.63140581  0.85114987  0.52564898     0.17900
C1372       C  0.71699619  0.85026406  0.50865991     0.25900
C1373       C  0.73558346  0.82614339  0.50172614    -0.11800
C1374       C  0.72431799  0.80086299  0.48736505    -0.25900
C1375       C  0.69365564  0.79950861  0.48148227     0.36800
C1376       C  0.67507612  0.82350443  0.48847932    -0.27500
F1377       F  0.72894026  0.87434256  0.52218614    -0.19600
H1378       H  0.75919272  0.82794816  0.50598368     0.16100
F1379       F  0.68195763  0.77560344  0.46739486    -0.23300
H1380       H  0.65181285  0.82220344  0.48250727     0.17900
C1381       C  0.61345433  0.18122066  0.49072625    -0.27400
C1382       C  0.64432178  0.17850307  0.49184783     0.06200
C1383       C  0.65700520  0.14996803  0.49262265     0.25900
C1384       C  0.63887239  0.12455275  0.49249440    -0.11900
C1385       C  0.60769739  0.12708981  0.49166605    -0.25800
C1386       C  0.59528192  0.15603214  0.49059869     0.36700
C1387       C  0.66318028  0.20547768  0.49323586     0.06300
F1388       F  0.68695698  0.14672809  0.49377442    -0.19600
H1389       H  0.64927322  0.10291112  0.49327598     0.16100
F1390       F  0.56546637  0.16036723  0.48959463    -0.23300
H1391       H  0.60334585  0.20302190  0.49018316     0.17900
C1392       C  0.67448797  0.21855396  0.46733950     0.25900
C1393       C  0.69647159  0.24057356  0.46922510    -0.11800
C1394       C  0.70713197  0.25009043  0.49694913    -0.25900
C1395       C  0.69306765  0.23949348  0.52268304     0.36800
C1396       C  0.67150869  0.21714228  0.52081211    -0.27500
F1397       F  0.66591192  0.20846584  0.44033329    -0.19600
H1398       H  0.70738584  0.24787511  0.44912818     0.16100
F1399       F  0.70308508  0.24791135  0.54976799    -0.23300
H1400       H  0.66264537  0.20763622  0.54098913     0.17900
C1401       C  0.33178283  0.18603606  0.47392268    -0.27400
C1402       C  0.34531208  0.17547747  0.49991135     0.06200
C1403       C  0.33438019  0.18501888  0.52750291     0.25900
C1404       C  0.30894162  0.20282392  0.52900607    -0.11900
C1405       C  0.29421512  0.21164165  0.50305864    -0.25800
C1406       C  0.30631242  0.20382966  0.47544562     0.36700
C1407       C  0.36929490  0.15291571  0.49807175     0.06300
F1408       F  0.34758027  0.17605734  0.55300577    -0.19600
H1409       H  0.29953708  0.20806159  0.55046341     0.16100
F1410       F  0.29181016  0.21096875  0.45006227    -0.23300
H1411       H  0.33982008  0.17891606  0.45245345     0.17900
C1412       C  0.36622281  0.12519377  0.51212495     0.25900
C1413       C  0.38851317  0.10367026  0.50958395    -0.11800
C1414       C  0.41446780  0.10948753  0.49336066    -0.25900
C1415       C  0.41753825  0.13730083  0.47935610     0.36800
C1416       C  0.39496984  0.15857490  0.48142781    -0.27500
F1417       F  0.34138921  0.11870596  0.52788032    -0.19600
H1418       H  0.38572018  0.08261940  0.52080544     0.16100
F1419       F  0.44219540  0.14384531  0.46332944    -0.23300
H1420       H  0.39767647  0.17968212  0.47029531     0.17900
C1421       C  0.86551867  0.94694600  0.63834697    -0.27400
C1422       C  0.83504462  0.94763545  0.63190071     0.06200
C1423       C  0.82632615  0.95331965  0.60241645     0.25900
C1424       C  0.84766972  0.95824365  0.58014788    -0.11900
C1425       C  0.87827222  0.95810887  0.58668937    -0.25800
C1426       C  0.88680594  0.95226671  0.61634216     0.36700
C1427       C  0.81276588  0.94562131  0.65651429     0.06300
F1428       F  0.79712706  0.95563285  0.59533977    -0.19600
H1429       H  0.84012207  0.96275746  0.55782981     0.16100
F1430       F  0.91577252  0.95228135  0.62458948    -0.23300
H1431       H  0.87294121  0.94281004  0.66079601     0.17900
C1432       C  0.78710597  0.92776135  0.65442969     0.25900
C1433       C  0.76435819  0.93011760  0.67569690    -0.11800
C1434       C  0.76711081  0.94975209  0.69972335    -0.25900
C1435       C  0.79379678  0.96554907  0.70315746     0.36800
C1436       C  0.81631580  0.96345345  0.68185254    -0.27500
F1437       F  0.78366777  0.90865691  0.63145035    -0.19600
H1438       H  0.74386559  0.91796528  0.67244461     0.16100
F1439       F  0.79706554  0.98487236  0.72599237    -0.23300
H1440       H  0.83584090  0.97726773  0.68428926     0.17900
C1441       C  0.08871110  0.95901433  0.64114538    -0.27400
C1442       C  0.11889835  0.95952433  0.63366295     0.06200
C1443       C  0.12708507  0.95966335  0.60361755     0.25900
C1444       C  0.10535657  0.95973239  0.58152025    -0.11900
C1445       C  0.07496909  0.95959582  0.58883792    -0.25800
C1446       C  0.06689450  0.95888911  0.61909498     0.36700
C1447       C  0.14184029  0.96070693  0.65713499     0.06300
F1448       F  0.15612640  0.96079486  0.59560955    -0.19600
H1449       H  0.11246011  0.96035623  0.55861432     0.16100
F1450       F  0.03799205  0.95832166  0.62761606    -0.23300
H1451       H  0.08202540  0.95869717  0.66419050     0.17900
C1452       C  0.14206376  0.98386491  0.67805433     0.25900
C1453       C  0.16594308  0.98691173  0.69769935    -0.11800
C1454       C  0.18976378  0.96691329  0.69676058    -0.25900
C1455       C  0.18863631  0.94274788  0.67709047     0.36800
C1456       C  0.16482975  0.93970088  0.65747586    -0.27500
F1457       F  0.12040368  0.00480819  0.67793572    -0.19600
H1458       H  0.16686069  0.00604484  0.71219053     0.16100
F1459       F  0.21151651  0.92318761  0.67561222    -0.23300
H1460       H  0.16486476  0.92154580  0.64174883     0.17900
C1461       C  0.14868597  0.97726412  0.30026198    -0.27400
C1462       C  0.14652020  0.95557208  0.32255136     0.06200
C1463       C  0.16868882  0.93370221  0.32452009     0.25900
C1464       C  0.19369610  0.93498902  0.30622721    -0.11900
C1465       C  0.19687648  0.95779532  0.28533724    -0.25800
C1466       C  0.17375420  0.97845114  0.28177379     0.36700
C1467       C  0.12287305  0.95740380  0.34546179     0.06300
F1468       F  0.16663598  0.91169983  0.34492508    -0.19600
H1469       H  0.21130605  0.91889044  0.30924226     0.16100
F1470       F  0.17643298  0.00096183  0.26199729    -0.23300
H1471       H  0.13179853  0.99426683  0.29832860     0.17900
C1472       C  0.13049105  0.96051981  0.37551359     0.25900
C1473       C  0.10841964  0.96263364  0.39724797    -0.11800
C1474       C  0.07812945  0.96195417  0.38960577    -0.25900
C1475       C  0.07056600  0.95858969  0.35931938     0.36800
C1476       C  0.09276755  0.95657296  0.33759072    -0.27500
F1477       F  0.15941571  0.96245188  0.38377857    -0.19600
H1478       H  0.11517145  0.96525760  0.42011818     0.16100
F1479       F  0.04177902  0.95703509  0.35050599    -0.23300
H1480       H  0.08645193  0.95410915  0.31456617     0.17900
C1481       C  0.79327945  0.95614144  0.31183486    -0.27400
C1482       C  0.82237135  0.96749260  0.31043938     0.06200
C1483       C  0.83123632  0.98218910  0.28419734     0.25900
C1484       C  0.81077298  0.98755296  0.26140034    -0.11900
C1485       C  0.78116783  0.97840824  0.26410402    -0.25800
C1486       C  0.77280889  0.96180341  0.28910523     0.36700
C1487       C  0.84255078  0.96620166  0.33690933     0.06300
F1488       F  0.85887973  0.99387982  0.28155649    -0.19600
H1489       H  0.81741753  0.00114709  0.24276195     0.16100
F1490       F  0.74404537  0.95357331  0.29280404    -0.23300
H1491       H  0.78590410  0.94404973  0.33119070     0.17900
C1492       C  0.83227074  0.97274874  0.36578926     0.25900
C1493       C  0.85221936  0.97481010  0.38970427    -0.11800
C1494       C  0.88292319  0.97085554  0.38547358    -0.25900
C1495       C  0.89287997  0.96305905  0.35674829     0.36800
C1496       C  0.87293599  0.96045633  0.33314705    -0.27500
F1497       F  0.80314283  0.97859463  0.37082373    -0.19600
H1498       H  0.84363654  0.98025996  0.41143675     0.16100
F1499       F  0.92204051  0.95801440  0.35104586    -0.23300
H1500       H  0.88151472  0.95428706  0.31160750     0.17900
C1501       C  0.10422089  0.83104306  0.49490750    -0.27400
C1502       C  0.12566075  0.83879236  0.47360123     0.06200
C1503       C  0.11939612  0.86103935  0.45280555     0.25900
C1504       C  0.09263074  0.87608909  0.45411014    -0.11900
C1505       C  0.07197709  0.86956288  0.47636271    -0.25800
C1506       C  0.07740875  0.84654783  0.49642776     0.36700
C1507       C  0.15523844  0.82514729  0.47396518     0.06300
F1508       F  0.14002856  0.86983170  0.43270386    -0.19600
H1509       H  0.08879344  0.89431032  0.43890091     0.16100
F1510       F  0.05805711  0.84083718  0.51876305    -0.23300
H1511       H  0.10874370  0.81379280  0.51097776     0.17900
C1512       C  0.17209847  0.82449937  0.50016366     0.25900
C1513       C  0.20068289  0.81277980  0.49979461    -0.11800
C1514       C  0.21262768  0.80163166  0.47342213    -0.25900
C1515       C  0.19601696  0.80253593  0.44720259     0.36800
C1516       C  0.16744660  0.81422881  0.44752077    -0.27500
F1517       F  0.16108134  0.83536637  0.52597072    -0.19600
H1518       H  0.21314814  0.81139245  0.52028470     0.16100
F1519       F  0.20720287  0.79143055  0.42157786    -0.23300
H1520       H  0.15466962  0.81445949  0.42718713     0.17900
C1521       C  0.85592598  0.83684923  0.44302247    -0.27400
C1522       C  0.84503813  0.84826487  0.41608952     0.06200
C1523       C  0.84952840  0.87822958  0.40924696     0.25900
C1524       C  0.86537306  0.89619916  0.42877480    -0.11900
C1525       C  0.87690669  0.88456453  0.45529171    -0.25800
C1526       C  0.87188339  0.85483424  0.46247973     0.36700
C1527       C  0.82562884  0.82940322  0.39787095     0.06300
F1528       F  0.83910632  0.88989701  0.38354620    -0.19600
H1529       H  0.86969263  0.91897708  0.42261289     0.16100
F1530       F  0.88213802  0.84340544  0.48834240    -0.23300
H1531       H  0.85156557  0.81404994  0.44920571     0.17900
C1532       C  0.83398579  0.80015344  0.39117866     0.25900
C1533       C  0.81197362  0.77846280  0.38850991    -0.11800
C1534       C  0.78282652  0.78558280  0.39758143    -0.25900
C1535       C  0.77427289  0.81532035  0.39230355     0.36800
C1536       C  0.79579908  0.83750742  0.39436809    -0.27500
F1537       F  0.86301415  0.79200098  0.39143545    -0.19600
H1538       H  0.81889621  0.75562497  0.38605301     0.16100
F1539       F  0.74535520  0.82340857  0.39013328    -0.23300
H1540       H  0.78882726  0.86036309  0.39688390     0.17900
C1541       C  0.84299344  0.17893025  0.52686350    -0.27400
C1542       C  0.84081878  0.15952637  0.50253292     0.06200
C1543       C  0.82255506  0.16721449  0.47851990     0.25900
C1544       C  0.80652282  0.19359461  0.47906301    -0.11900
C1545       C  0.80847305  0.21284828  0.50340745    -0.25800
C1546       C  0.82694817  0.20548751  0.52733176     0.36700
C1547       C  0.85806298  0.13165096  0.50189481     0.06300
F1548       F  0.82056628  0.14947364  0.45430167    -0.19600
H1549       H  0.79230301  0.19899107  0.46046082     0.16100
F1550       F  0.82845006  0.22325819  0.55156318    -0.23300
H1551       H  0.85671597  0.17323121  0.54572993     0.17900
C1552       C  0.88862853  0.13204712  0.50768328     0.25900
C1553       C  0.90506281  0.10601114  0.50572533    -0.11800
C1554       C  0.89158493  0.07895339  0.49750210    -0.25900
C1555       C  0.86084234  0.07848554  0.49217165     0.36800
C1556       C  0.84426831  0.10465092  0.49446815    -0.27500
F1557       F  0.90289623  0.15782122  0.51404401    -0.19600
H1558       H  0.92865167  0.10731690  0.51026279     0.16100
F1559       F  0.84690653  0.05307947  0.48404595    -0.23300
H1560       H  0.82061143  0.10389259  0.49019490     0.17900
C1561       C  0.13225639  0.07785208  0.51545991    -0.27400
C1562       C  0.12643312  0.10724358  0.50699938     0.06200
C1563       C  0.09898151  0.11427381  0.49411988     0.25900
C1564       C  0.07764831  0.09227602  0.48984756    -0.11900
C1565       C  0.08310922  0.06281230  0.49853633    -0.25800
C1566       C  0.11069202  0.05577347  0.51154719     0.36700
C1567       C  0.14944600  0.13038698  0.50986363     0.06300
F1568       F  0.09307468  0.14236864  0.48504128    -0.19600
H1569       H  0.05675019  0.09836993  0.47963288     0.16100
F1570       F  0.11647480  0.02790668  0.52135913    -0.23300
H1571       H  0.15339250  0.07212859  0.52540249     0.17900
C1572       C  0.14412789  0.15631096  0.52634929     0.25900
C1573       C  0.16455272  0.17968363  0.52571697    -0.11800
C1574       C  0.19055863  0.17752031  0.50866428    -0.25900
C1575       C  0.19609184  0.15116862  0.49274464     0.36800
C1576       C  0.17578559  0.12779611  0.49360066    -0.27500
F1577       F  0.11904823  0.15906388  0.54280189    -0.19600
H1578       H  0.16000806  0.19953692  0.53844942     0.16100
F1579       F  0.22035494  0.14853708  0.47508950    -0.23300
H1580       H  0.17998414  0.10811941  0.48046864     0.17900
C1581       C  0.94953931  0.64937321  0.16845891    -0.27400
C1582       C  0.96493502  0.64735956  0.14144311     0.06200
C1583       C  0.98468230  0.67041027  0.13378062     0.25900
C1584       C  0.99016638  0.69384148  0.15351542    -0.11900
C1585       C  0.97585074  0.69504926  0.18110208    -0.25800
C1586       C  0.95500937  0.67288232  0.18814395     0.36700
C1587       C  0.96235630  0.62041734  0.12224952     0.06300
F1588       F  0.00060411  0.66898318  0.10828744    -0.19600
H1589       H  0.00716148  0.70996653  0.14813581     0.16100
F1590       F  0.94200778  0.67253970  0.21526242    -0.23300
H1591       H  0.93417809  0.63204934  0.17487459     0.17900
C1592       C  0.96747924  0.59169283  0.13354582     0.25900
C1593       C  0.96956652  0.56713930  0.11435432    -0.11800
C1594       C  0.96634974  0.57061563  0.08351113    -0.25900
C1595       C  0.95907450  0.59921678  0.07267878     0.36800
C1596       C  0.95728353  0.62358145  0.09179702    -0.27500
F1597       F  0.97208957  0.58756738  0.16296259    -0.19600
H1598       H  0.97461677  0.54556817  0.12361038     0.16100
F1599       F  0.95424954  0.60411240  0.04340889    -0.23300
H1600       H  0.95257626  0.64527394  0.08260999     0.17900
C1601       C  0.95040755  0.79408673  0.30432057    -0.27400
C1602       C  0.96798979  0.81986044  0.30523360     0.06200
C1603       C  0.98711680  0.82569755  0.28123390     0.25900
C1604       C  0.99026177  0.80505538  0.25818165    -0.11900
C1605       C  0.97418176  0.77835570  0.25827030    -0.25800
C1606       C  0.95326180  0.77364544  0.28095843     0.36700
C1607       C  0.96806664  0.83946015  0.33198790     0.06300
F1608       F  0.00482272  0.85005699  0.28140347    -0.19600
H1609       H  0.00725902  0.80869600  0.24159549     0.16100
F1610       F  0.93777348  0.74784243  0.28204164    -0.23300
H1611       H  0.93534811  0.78918938  0.32237136     0.17900
C1612       C  0.96323270  0.87011792  0.32937240     0.25900
C1613       C  0.96543410  0.88866942  0.35416918    -0.11800
C1614       C  0.97247016  0.87732906  0.38243574    -0.25900
C1615       C  0.97702828  0.84645715  0.38513629     0.36800
C1616       C  0.97467943  0.82782394  0.36018503    -0.27500
F1617       F  0.95609595  0.88218904  0.30277461    -0.19600
H1618       H  0.96149908  0.91214858  0.35110019     0.16100
F1619       F  0.98463888  0.83430436  0.41157110    -0.23300
H1620       H  0.97885689  0.80430108  0.36272938     0.17900
C1621       C  0.99698800  0.31149223  0.88354605    -0.27400
C1622       C  0.98719402  0.31577865  0.85438730     0.06200
C1623       C  0.97800501  0.34435868  0.84564028     0.25900
C1624       C  0.97838701  0.36793725  0.86582876    -0.11900
C1625       C  0.98787571  0.36363025  0.89518336    -0.25800
C1626       C  0.99747849  0.33502831  0.90372477     0.36700
C1627       C  0.98768548  0.29082354  0.83283174     0.06300
F1628       F  0.96930770  0.34971647  0.81734655    -0.19600
H1629       H  0.97095872  0.38956321  0.85847554     0.16100
F1630       F  0.00771833  0.32966899  0.93149015    -0.23300
H1631       H  0.00418898  0.28975488  0.89080429     0.17900
C1632       C  0.01359904  0.27379236  0.82856641     0.25900
C1633       C  0.01563078  0.25419508  0.80459286    -0.11800
C1634       C  0.99190358  0.25120134  0.78472568    -0.25900
C1635       C  0.96504988  0.26591032  0.79067565     0.36800
C1636       C  0.96297701  0.28550555  0.81457808    -0.27500
F1637       F  0.03799268  0.27826765  0.84565112    -0.19600
H1638       H  0.03672662  0.24365451  0.79984571     0.16100
F1639       F  0.94203384  0.26393579  0.77133238    -0.23300
H1640       H  0.94259761  0.29786438  0.81778868     0.17900
C1641       C  0.99863535  0.07707404  0.64296150    -0.27400
C1642       C  0.98863004  0.10614616  0.63776157     0.06200
C1643       C  0.97797902  0.11347239  0.60936278     0.25900
C1644       C  0.97655394  0.09201844  0.58706354    -0.11900
C1645       C  0.98584568  0.06273484  0.59234277    -0.25800
C1646       C  0.99720241  0.05549763  0.62055767     0.36700
C1647       C  0.99007224  0.12918043  0.66139558     0.06300
F1648       F  0.96967616  0.14167660  0.60285238    -0.19600
H1649       H  0.96800236  0.09838615  0.56555405     0.16100
F1650       F  0.00764620  0.02784447  0.62629390    -0.23300
H1651       H  0.00740239  0.07103055  0.66447043     0.17900
C1652       C  0.96537433  0.14743253  0.66728624     0.25900
C1653       C  0.96824660  0.17225865  0.68563128    -0.11800
C1654       C  0.99549273  0.17889579  0.69907464    -0.25900
C1655       C  0.01952122  0.15935838  0.69535409     0.36800
C1656       C  0.01680336  0.13466001  0.67660458    -0.27500
F1657       F  0.93865361  0.14174391  0.65457352    -0.19600
H1658       H  0.94950600  0.18708540  0.68835931     0.16100
F1659       F  0.04602247  0.16513436  0.70847757    -0.23300
H1660       H  0.03603306  0.12075712  0.67272382     0.17900
C1661       C  0.95316058  0.63490600  0.79808536    -0.27400
C1662       C  0.96289572  0.63819317  0.82749923     0.06200
C1663       C  0.97493177  0.66577297  0.83618081     0.25900
C1664       C  0.97878462  0.68865344  0.81539116    -0.11900
C1665       C  0.97020535  0.68481084  0.78571392    -0.25800
C1666       C  0.95659807  0.65796211  0.77747065     0.36700
C1667       C  0.96248946  0.61227398  0.84827533     0.06300
F1668       F  0.98522977  0.66981281  0.86414995    -0.19600
H1669       H  0.99034113  0.70866516  0.82199220     0.16100
F1670       F  0.94915723  0.65306075  0.74874691    -0.23300
H1671       H  0.94382400  0.61400724  0.79078692     0.17900
C1672       C  0.95025308  0.61470767  0.87681874     0.25900
C1673       C  0.95206301  0.59099949  0.89683929    -0.11800
C1674       C  0.96580383  0.56401437  0.88896499    -0.25900
C1675       C  0.97702577  0.56113083  0.85995157     0.36800
C1676       C  0.97537000  0.58502086  0.83993849    -0.27500
F1677       F  0.93627248  0.63998065  0.88533217    -0.19600
H1678       H  0.94270574  0.59387041  0.91875324     0.16100
F1679       F  0.99077367  0.53578227  0.85127847    -0.23300
H1680       H  0.98500459  0.58251810  0.81809978     0.17900
C1681       C  0.95069079  0.77204627  0.64992398    -0.27400
C1682       C  0.96132520  0.80120450  0.65335539     0.06200
C1683       C  0.97312998  0.80958348  0.68102256     0.25900
C1684       C  0.97595442  0.78883048  0.70393373    -0.11900
C1685       C  0.96702873  0.75928207  0.69998607    -0.25800
C1686       C  0.95347841  0.75124774  0.67300987     0.36700
C1687       C  0.96139439  0.82266791  0.62809133     0.06300
F1688       F  0.98425414  0.83725616  0.68514780    -0.19600
H1689       H  0.98739290  0.79526815  0.72404749     0.16100
F1690       F  0.94490979  0.72277930  0.66826783    -0.23300
H1691       H  0.94112620  0.76512489  0.62902132     0.17900
C1692       C  0.97482945  0.81576643  0.60069618     0.25900
C1693       C  0.97701008  0.83733517  0.57823925    -0.11800
C1694       C  0.96628681  0.86630428  0.58279976    -0.25900
C1695       C  0.95241303  0.87283797  0.61002671     0.36800
C1696       C  0.94985234  0.85128017  0.63214903    -0.27500
F1697       F  0.98718079  0.78868318  0.59616574    -0.19600
H1698       H  0.98800292  0.83166413  0.55766534     0.16100
F1699       F  0.94113265  0.90016475  0.61537000    -0.23300
H1700       H  0.93915568  0.85713434  0.65283033     0.17900
C1701       C  0.15720085  0.64908337  0.50748803    -0.27400
C1702       C  0.18265213  0.63883860  0.49253946     0.06200
C1703       C  0.18204938  0.61064380  0.47938500     0.25900
C1704       C  0.15649367  0.59316592  0.48102455    -0.11900
C1705       C  0.13077979  0.60348571  0.49547456    -0.25800
C1706       C  0.13136612  0.63170149  0.50881088     0.36700
C1707       C  0.20908605  0.65831290  0.48940850     0.06300
F1708       F  0.20627309  0.59991011  0.46506117    -0.19600
H1709       H  0.15672759  0.57154208  0.47054947     0.16100
F1710       F  0.10729123  0.64223352  0.52355312    -0.23300
H1711       H  0.15718647  0.67084511  0.51766374     0.17900
C1712       C  0.21914780  0.66678526  0.46117496     0.25900
C1713       C  0.24094101  0.68873729  0.45825736    -0.11800
C1714       C  0.25255395  0.70321471  0.48334969    -0.25900
C1715       C  0.24433334  0.69287365  0.51157926     0.36800
C1716       C  0.22272300  0.67065898  0.51453032    -0.27500
F1717       F  0.20558414  0.65628596  0.43643096    -0.19600
H1718       H  0.24599122  0.69709328  0.43632911     0.16100
F1719       F  0.25415726  0.70702158  0.53623859    -0.23300
H1720       H  0.21529988  0.66437286  0.53646688     0.17900
C1721       C  0.85783800  0.42085141  0.50282278    -0.27400
C1722       C  0.86168923  0.39030609  0.50697328     0.06200
C1723       C  0.89069164  0.37904294  0.50965864     0.25900
C1724       C  0.91540496  0.39798050  0.50787236    -0.11900
C1725       C  0.91180239  0.42875649  0.50379053    -0.25800
C1726       C  0.88244985  0.43995764  0.50154594     0.36700
C1727       C  0.83574031  0.36984261  0.50789697     0.06300
F1728       F  0.89507481  0.34951571  0.51357783    -0.19600
H1729       H  0.93740192  0.38846958  0.50982416     0.16100
F1730       F  0.87728219  0.46940147  0.49798303    -0.23300
H1731       H  0.83567087  0.42996111  0.50076025     0.17900
C1732       C  0.82804169  0.35525789  0.53431248     0.25900
C1733       C  0.80778516  0.33161981  0.53392506    -0.11800
C1734       C  0.79452726  0.32235990  0.50728761    -0.25900
C1735       C  0.80047795  0.33845900  0.48126350     0.36800
C1736       C  0.82086807  0.36207800  0.48163685    -0.27500
F1737       F  0.84129795  0.36291480  0.56021026    -0.19600
H1738       H  0.80377294  0.31933833  0.55414939     0.16100
F1739       F  0.78863278  0.32966090  0.45505134    -0.23300
H1740       H  0.82650341  0.37304398  0.46104991     0.17900
C1741       C  0.17239735  0.31638577  0.46894124    -0.27400
C1742       C  0.17571148  0.33819501  0.49085110     0.06200
C1743       C  0.19777700  0.33454223  0.51262881     0.25900
C1744       C  0.21455865  0.30829670  0.51374031    -0.11900
C1745       C  0.20970991  0.28556569  0.49299105    -0.25800
C1746       C  0.18944047  0.29046128  0.46976298     0.36700
C1747       C  0.15424986  0.36312317  0.49232884     0.06300
F1748       F  0.20159743  0.35539106  0.53398785    -0.19600
H1749       H  0.22999705  0.30495811  0.53183562     0.16100
F1750       F  0.18528527  0.26953883  0.44853797    -0.23300
H1751       H  0.15587064  0.31905717  0.45170171     0.17900
C1752       C  0.16349330  0.39268565  0.48941247     0.25900
C1753       C  0.14267190  0.41574806  0.49070114    -0.11800
C1754       C  0.11219605  0.40986108  0.49524050    -0.25900
C1755       C  0.10319412  0.38011135  0.49870090     0.36800
C1756       C  0.12401028  0.35710325  0.49694912    -0.27500
F1757       F  0.19254746  0.39920901  0.48473661    -0.19600
H1758       H  0.15052306  0.43828331  0.48796260     0.16100
F1759       F  0.07440059  0.37310394  0.50417183    -0.23300
H1760       H  0.11655905  0.33441429  0.49961306     0.17900
C1761       C  0.86295253  0.71834003  0.49587337    -0.27400
C1762       C  0.85857475  0.68745184  0.49524183     0.06200
C1763       C  0.82958094  0.67660401  0.49063594     0.25900
C1764       C  0.80584943  0.69618642  0.48572805    -0.11900
C1765       C  0.81036174  0.72697686  0.48545304    -0.25800
C1766       C  0.83914900  0.73793159  0.49098262     0.36700
C1767       C  0.88419631  0.66653343  0.49827617     0.06300
F1768       F  0.82454230  0.64698476  0.48878795    -0.19600
H1769       H  0.78419136  0.68723698  0.48031542     0.16100
F1770       F  0.84455589  0.76752736  0.48987926    -0.23300
H1771       H  0.88499247  0.72728072  0.49944274     0.17900
C1772       C  0.90910514  0.66835283  0.47940227     0.25900
C1773       C  0.93198313  0.64718492  0.48114455    -0.11800
C1774       C  0.93034860  0.62365815  0.50147200    -0.25900
C1775       C  0.90594979  0.62240231  0.52095471     0.36800
C1776       C  0.88321577  0.64360546  0.51933300    -0.27500
F1777       F  0.91059479  0.68964834  0.45821977    -0.19600
H1778       H  0.95035861  0.64843019  0.46570940     0.16100
F1779       F  0.90410803  0.60061967  0.54163406    -0.23300
H1780       H  0.86456039  0.64193522  0.53438321     0.17900
C1781       C  0.17138984  0.50825648  0.38371030    -0.27400
C1782       C  0.16421851  0.51626591  0.35462899     0.06200
C1783       C  0.13431839  0.52113809  0.34710948     0.25900
C1784       C  0.11206652  0.51845104  0.36860769    -0.11900
C1785       C  0.11918980  0.51129524  0.39812689    -0.25800
C1786       C  0.14929049  0.50593334  0.40533694     0.36700
C1787       C  0.18787490  0.51781664  0.33193181     0.06300
F1788       F  0.12656594  0.52786207  0.31883797    -0.19600
H1789       H  0.08924375  0.52231880  0.36211816     0.16100
F1790       F  0.15759066  0.49824462  0.43319918    -0.23300
H1791       H  0.19428776  0.50395870  0.38971561     0.17900
C1792       C  0.19429055  0.54446107  0.31707870     0.25900
C1793       C  0.21461383  0.54467248  0.29355803    -0.11800
C1794       C  0.22882697  0.51837930  0.28469836    -0.25900
C1795       C  0.22349447  0.49215068  0.30061199     0.36800
C1796       C  0.20334696  0.49196467  0.32416143    -0.27500
F1797       F  0.18008392  0.56993251  0.32460618    -0.19600
H1798       H  0.21767709  0.56485106  0.28090318     0.16100
F1799       F  0.23552871  0.46612163  0.29141767    -0.23300
H1800       H  0.19853268  0.47122877  0.33528347     0.17900
C1801       C  0.86671935  0.53028865  0.38845711    -0.27400
C1802       C  0.87126731  0.51813883  0.36015061     0.06200
C1803       C  0.90002312  0.50821166  0.35273789     0.25900
C1804       C  0.92344603  0.51033507  0.37321127    -0.11900
C1805       C  0.91884706  0.52207082  0.40176501    -0.25800
C1806       C  0.89004284  0.53221048  0.40903615     0.36700
C1807       C  0.84595242  0.51512771  0.33878266     0.06300
F1808       F  0.90525368  0.49524227  0.32610523    -0.19600
H1809       H  0.94508085  0.50192465  0.36693188     0.16100
F1810       F  0.88427038  0.54416785  0.43601975    -0.23300
H1811       H  0.84494905  0.53837713  0.39469296     0.17900
C1812       C  0.81902486  0.50157446  0.34729101     0.25900
C1813       C  0.79655080  0.49626017  0.32636147    -0.11800
C1814       C  0.80041391  0.50421041  0.29657100    -0.25900
C1815       C  0.82667939  0.51895693  0.28828237     0.36800
C1816       C  0.84906954  0.52448749  0.30920926    -0.27500
F1817       F  0.81530585  0.49136681  0.37531430    -0.19600
H1818       H  0.77694056  0.48404470  0.33301388     0.16100
F1819       F  0.83139207  0.52638908  0.25952672    -0.23300
H1820       H  0.86932672  0.53528280  0.30207577     0.17900
C1821       C  0.17921677  0.51449035  0.60102374    -0.27400
C1822       C  0.17490142  0.52395765  0.63025248     0.06200
C1823       C  0.14565168  0.52801899  0.64058759     0.25900
C1824       C  0.12132397  0.52338017  0.62175359    -0.11900
C1825       C  0.12555795  0.51466235  0.59215442    -0.25800
C1826       C  0.15499004  0.50965439  0.58221643     0.36700
C1827       C  0.20061173  0.52754263  0.65064833     0.06300
F1828       F  0.14055434  0.53571534  0.66920838    -0.19600
H1829       H  0.09915952  0.52698802  0.63032128     0.16100
F1830       F  0.16060299  0.49980896  0.55434966    -0.23300
H1831       H  0.20147987  0.51077301  0.59271722     0.17900
C1832       C  0.22032536  0.50383138  0.65568924     0.25900
C1833       C  0.23990401  0.50460616  0.67980963    -0.11800
C1834       C  0.24005277  0.52892440  0.69922163    -0.25900
C1835       C  0.22280747  0.55397656  0.69212960     0.36800
C1836       C  0.20333543  0.55327785  0.66797428    -0.27500
F1837       F  0.21818619  0.47851340  0.63956008    -0.19600
H1838       H  0.25224771  0.48474945  0.68539197     0.16100
F1839       F  0.22165057  0.57736109  0.71105554    -0.23300
H1840       H  0.18866170  0.57195088  0.66423140     0.17900
C1841       C  0.86759086  0.52260514  0.60570420    -0.27400
C1842       C  0.87214676  0.51918286  0.63613927     0.06200
C1843       C  0.90153696  0.51862834  0.64693958     0.25900
C1844       C  0.92581788  0.52060173  0.62733164    -0.11900
C1845       C  0.92127481  0.52333660  0.59658210    -0.25800
C1846       C  0.89154728  0.52499066  0.58619830     0.36700
C1847       C  0.84605733  0.51434543  0.65591219     0.06300
F1848       F  0.90677444  0.51480683  0.67628855    -0.19600
H1849       H  0.94813130  0.51927572  0.63618184     0.16100
F1850       F  0.88518263  0.52836965  0.55699323    -0.23300
H1851       H  0.84520507  0.52321514  0.59690811     0.17900
C1852       C  0.84013627  0.53312761  0.68010242     0.25900
C1853       C  0.81664491  0.52677513  0.69963681    -0.11800
C1854       C  0.79873369  0.50157103  0.69537855    -0.25900
C1855       C  0.80358430  0.48390808  0.67010944     0.36800
C1856       C  0.82686781  0.49035352  0.65056813    -0.27500
F1857       F  0.85742598  0.55726034  0.68511252    -0.19600
H1858       H  0.81364273  0.54046363  0.71912616     0.16100
F1859       F  0.78681476  0.45933940  0.66533696    -0.23300
H1860       H  0.83074240  0.47578416  0.63187644     0.17900
C1861       C  0.03540703  0.64854654  0.29986562    -0.27400
C1862       C  0.05221206  0.66263353  0.32179072     0.06200
C1863       C  0.06441170  0.69067431  0.31636864     0.25900
C1864       C  0.05793334  0.70531363  0.28985053    -0.11900
C1865       C  0.03831258  0.69253694  0.26912859    -0.25800
C1866       C  0.02821968  0.66330645  0.27384110     0.36700
C1867       C  0.05365506  0.64856206  0.35100037     0.06300
F1868       F  0.08108705  0.70445242  0.33728999    -0.19600
H1869       H  0.06621621  0.72763061  0.28660109     0.16100
F1870       F  0.00850835  0.65017429  0.25523629    -0.23300
H1871       H  0.02583766  0.62687163  0.30396165     0.17900
C1872       C  0.03522414  0.65866541  0.37405366     0.25900
C1873       C  0.02960521  0.64039454  0.39844880    -0.11800
C1874       C  0.04216199  0.61197101  0.39974358    -0.25900
C1875       C  0.06264503  0.60316293  0.37794470     0.36800
C1876       C  0.06814165  0.62128009  0.35363726    -0.27500
F1877       F  0.02075786  0.68498657  0.37173644    -0.19600
H1878       H  0.01415182  0.64767295  0.41534428     0.16100
F1879       F  0.07676972  0.57666775  0.37980724    -0.23300
H1880       H  0.08238272  0.61331192  0.33599925     0.17900
C1881       C  0.01665685  0.39394003  0.64385000    -0.27400
C1882       C  0.02159908  0.36545285  0.63230411     0.06200
C1883       C  0.02818059  0.36197945  0.60224070     0.25900
C1884       C  0.02873171  0.38655692  0.58368439    -0.11900
C1885       C  0.02234032  0.41513952  0.59463675    -0.25800
C1886       C  0.01698285  0.41874428  0.62515497     0.36700
C1887       C  0.01846007  0.33902618  0.65106727     0.06300
F1888       F  0.03373104  0.33467640  0.59078934    -0.19600
H1889       H  0.03371042  0.38300434  0.56047913     0.16100
F1890       F  0.01092404  0.44586369  0.63671454    -0.23300
H1891       H  0.01161246  0.39679705  0.66713406     0.17900
C1892       C  0.03892403  0.33306727  0.67368935     0.25900
C1893       C  0.03617233  0.30721742  0.69050725    -0.11800
C1894       C  0.01305456  0.28704793  0.68484085    -0.25900
C1895       C  0.99249174  0.29319158  0.66227386     0.36800
C1896       C  0.99532522  0.31896840  0.64542364    -0.27500
F1897       F  0.06176483  0.35195803  0.67908626    -0.19600
H1898       H  0.05200346  0.30292154  0.70806310     0.16100
F1899       F  0.96903500  0.27491990  0.65737613    -0.23300
H1900       H  0.97930094  0.32349752  0.62809584     0.17900
C1901       C  0.06700156  0.64420316  0.69233730    -0.27400
C1902       C  0.08002825  0.65979796  0.66886664     0.06200
C1903       C  0.08385143  0.69058465  0.67142888     0.25900
C1904       C  0.06964837  0.70592748  0.69430150    -0.11900
C1905       C  0.05094546  0.69067634  0.71413755    -0.25800
C1906       C  0.05197480  0.65938332  0.71454903     0.36700
C1907       C  0.07868534  0.64562294  0.63947069     0.06300
F1908       F  0.09769931  0.70606063  0.64966246    -0.19600
H1909       H  0.07029181  0.72994135  0.69423882     0.16100
F1910       F  0.03449948  0.64319787  0.73293154    -0.23300
H1911       H  0.06400439  0.62039615  0.69093583     0.17900
C1912       C  0.08954245  0.61672673  0.63543949     0.25900
C1913       C  0.07824458  0.59911999  0.61267990    -0.11800
C1914       C  0.05618809  0.61009819  0.59357860    -0.25900
C1915       C  0.04748387  0.63985907  0.59576748     0.36800
C1916       C  0.05869626  0.65746751  0.61860277    -0.27500
F1917       F  0.10916783  0.60482445  0.65494006    -0.19600
H1918       H  0.08596450  0.57649600  0.61055769     0.16100
F1919       F  0.02624092  0.65109307  0.57762176    -0.23300
H1920       H  0.04950300  0.67946685  0.62164957     0.17900
C1921       C  0.02022201  0.28519027  0.16079691    -0.27400
C1922       C  0.99345457  0.30049756  0.15604746     0.06200
C1923       C  0.96870948  0.29378237  0.17375902     0.25900
C1924       C  0.97144577  0.27385738  0.19731644    -0.11900
C1925       C  0.99890254  0.26055712  0.20367508    -0.25800
C1926       C  0.02304818  0.26552082  0.18462701     0.36700
C1927       C  0.99199872  0.32442815  0.13362186     0.06300
F1928       F  0.94233138  0.30760585  0.16916937    -0.19600
H1929       H  0.95284541  0.27085230  0.21224013     0.16100
F1930       F  0.05008595  0.25376258  0.19091823    -0.23300
H1931       H  0.03948343  0.28999168  0.14724929     0.17900
C1932       C  0.98538122  0.35383913  0.14176448     0.25900
C1933       C  0.98477941  0.37635591  0.12033523    -0.11800
C1934       C  0.99045495  0.36991964  0.09034444    -0.25900
C1935       C  0.99698340  0.34023597  0.08244559     0.36800
C1936       C  0.99799920  0.31797672  0.10393460    -0.27500
F1937       F  0.98005419  0.36086175  0.17052652    -0.19600
H1938       H  0.97959715  0.39877862  0.12722244     0.16100
F1939       F  0.00254601  0.33244802  0.05394259    -0.23300
H1940       H  0.00319911  0.29546660  0.09731537     0.17900
C1941       C  0.02708621  0.14908241  0.32109639    -0.27400
C1942       C  0.99852337  0.13758425  0.32607868     0.06200
C1943       C  0.97434251  0.14946622  0.31024342     0.25900
C1944       C  0.97864963  0.17307697  0.29062400    -0.11900
C1945       C  0.00691542  0.18556267  0.28700015    -0.25800
C1946       C  0.03124611  0.17305835  0.30197532     0.36700
C1947       C  0.99391748  0.11499741  0.34949264     0.06300
F1948       F  0.94622982  0.14007084  0.31565849    -0.19600
H1949       H  0.95953064  0.18320821  0.28013583     0.16100
F1950       F  0.05864694  0.18541507  0.29964775    -0.23300
H1951       H  0.04602016  0.14027667  0.33301419     0.17900
C1952       C  0.97718181  0.08924610  0.34408230     0.25900
C1953       C  0.97329885  0.06821512  0.36644321    -0.11800
C1954       C  0.98599758  0.07239666  0.39459466    -0.25900
C1955       C  0.00234820  0.09838082  0.40016631     0.36800
C1956       C  0.00632818  0.11935675  0.37774204    -0.27500
F1957       F  0.96543706  0.08387901  0.31691636    -0.19600
H1958       H  0.96060857  0.04838473  0.36159128     0.16100
F1959       F  0.01545175  0.10302724  0.42685581    -0.23300
H1960       H  0.01914013  0.13913508  0.38246868     0.17900
C1961       C  0.03322546  0.34217510  0.31894081    -0.27400
C1962       C  0.01532159  0.34157255  0.34427101     0.06200
C1963       C  0.99822851  0.31632821  0.35065450     0.25900
C1964       C  0.99870477  0.29217854  0.33146102    -0.11900
C1965       C  0.01641598  0.29282047  0.30588614    -0.25800
C1966       C  0.03404653  0.31786385  0.29995825     0.36700
C1967       C  0.01536650  0.36704791  0.36439807     0.06300
F1968       F  0.98059318  0.31533849  0.37503249    -0.19600
H1969       H  0.98462797  0.27327672  0.33617380     0.16100
F1970       F  0.05229756  0.31867110  0.27604753    -0.23300
H1971       H  0.04689692  0.36135402  0.31414392     0.17900
C1972       C  0.02359783  0.36321509  0.39402793     0.25900
C1973       C  0.02395241  0.38737985  0.41304175    -0.11800
C1974       C  0.01610844  0.41584702  0.40289228    -0.25900
C1975       C  0.00833971  0.41976169  0.37297019     0.36800
C1976       C  0.00800991  0.39539475  0.35386885    -0.27500
F1977       F  0.03195256  0.33620170  0.40440560    -0.19600
H1978       H  0.03063254  0.38372546  0.43580481     0.16100
F1979       F  0.00049809  0.44680141  0.36232356    -0.23300
H1980       H  0.00173974  0.39853088  0.33091393     0.17900
loop_ 
_geom_bond_atom_site_label_1 
_geom_bond_atom_site_label_2 
_geom_bond_distance 
_geom_bond_site_symmetry_2 
_ccdc_geom_bond_type 
C1            C2   1.397       .  A
C1            C6   1.408       .  A
C1         C1925   1.471   1_455  S
C2            C3   1.393       .  A
C2            H7   1.085       .  S
C3            C4   1.395       .  A
C3         C1965   1.471       .  S
C4            C5   1.401       .  A
C4            H8   1.085       .  S
C5            C6   1.411       .  A
C5         C1945   1.473       .  S
C6            H9   1.083   1_455  S
O10         Zr46   2.445       .  S
O10          C21   1.293       .  A
O11         Zr45   2.461       .  S
O11          C22   1.296       .  A
O12         Zr18   2.462       .  S
O12          C23   1.296       .  A
O13         Zr18   2.470   1_655  S
O13          C24   1.299       .  A
O14         Zr48   2.441       .  S
O14          C24   1.292       .  A
O15         Zr47   2.423       .  S
O15          C23   1.289       .  A
O16         Zr18   2.404       .  S
O16          C22   1.287       .  A
O17         Zr18   2.399       .  S
O17          C21   1.287       .  A
Zr18         O19   2.334   1_455  S
Zr18         O20   2.338       .  S
Zr18         O28   2.340   1_455  S
Zr18         O26   2.337       .  S
O19         Zr45   2.343   1_655  S
O19         Zr48   2.344       .  S
O20         Zr46   2.342       .  S
O20         Zr47   2.331       .  S
C21        C1974   1.472       .  S
C22        C1885   1.481       .  S
C23        C1754   1.493       .  S
C24        C1725   1.503       .  S
H25          O26   0.962       .  S
O26         Zr45   2.346       .  S
O26         Zr47   2.336       .  S
H27          O28   0.963       .  S
O28         Zr46   2.341   1_655  S
O28         Zr48   2.336       .  S
O29         Zr45   2.429       .  S
O29          C52   1.292       .  A
O30         Zr46   2.432       .  S
O30          C53   1.292       .  A
O31         Zr47   2.418       .  S
O31          C54   1.288       .  A
O32         Zr48   2.414       .  S
O32          C55   1.288       .  A
O33         Zr48   2.451       .  S
O33          C56   1.295       .  A
O34         Zr47   2.431       .  S
O34          C57   1.290       .  A
O35         Zr49   2.462       .  S
O35          C58   1.296       .  A
O36         Zr49   2.469   1_655  S
O36          C59   1.297       .  A
O37         Zr47   2.421       .  S
O37          C58   1.289       .  A
O38         Zr48   2.436       .  S
O38          C59   1.292       .  A
O39         Zr45   2.476       .  S
O39          C54   1.300       .  A
O40         Zr46   2.455       .  S
O40          C57   1.296       .  A
O41         Zr46   2.465   1_655  S
O41          C56   1.298       .  A
O42         Zr45   2.489   1_655  S
O42          C55   1.303       .  A
O43         Zr49   2.433       .  S
O43          C52   1.291       .  A
O44         Zr49   2.439       .  S
O44          C53   1.292       .  A
Zr45         O51   2.340       .  S
Zr45         O63   2.364   1_455  S
Zr46         O50   2.353   1_455  S
Zr46         O61   2.343       .  S
Zr47         O51   2.325       .  S
Zr47         O61   2.326       .  S
Zr48         O50   2.340       .  S
Zr48         O63   2.353       .  S
Zr49         O50   2.351   1_455  S
Zr49         O51   2.337       .  S
Zr49         O63   2.353   1_455  S
Zr49         O61   2.344       .  S
C52        C1914   1.469       .  S
C53        C1874   1.467       .  S
C54        C1825   1.495       .  S
C55        C1845   1.502       .  S
C56        C1805   1.501       .  S
C57        C1785   1.491       .  S
C58        C1705   1.484       .  S
C59        C1774   1.487       .  S
H60          O61   0.966       .  S
H62          O63   0.973       .  S
C64          C65   1.418       .  A
C64          C69   1.401   1_655  A
C64        C1665   1.486       .  S
C65          C66   1.416       .  A
C65          H70   1.083       .  S
C66          C67   1.399   1_655  A
C66        C1685   1.486       .  S
C67          C68   1.402       .  A
C67          H71   1.084       .  S
C68          C69   1.399       .  A
C68        C1905   1.487       .  S
C69          H72   1.084       .  S
C73          C74   1.397   1_655  A
C73          C78   1.408       .  A
C73        C1634   1.471       .  S
C74          C75   1.392       .  A
C74          H79   1.086       .  S
C75          C76   1.401       .  A
C75        C1894   1.474       .  S
C76          C77   1.406   1_455  A
C76          H80   1.084       .  S
C77          C78   1.410       .  A
C77        C1654   1.477       .  S
C78          H81   1.083       .  S
C82          C83   1.419       .  A
C82          C87   1.402   1_655  A
C82        C1585   1.485       .  S
C83          C84   1.416       .  A
C83          H88   1.083       .  S
C84          C85   1.397   1_655  A
C84        C1605   1.485       .  S
C85          C86   1.397       .  A
C85          H89   1.085       .  S
C86          C87   1.398       .  A
C86        C1865   1.481       .  S
C87          H90   1.084       .  S
O91        Zr127   2.423   1_545  S
O91         C102   1.290       .  A
O92        Zr126   2.450   1_545  S
O92         C103   1.294       .  A
O93         Zr99   2.387       .  S
O93         C104   1.284       .  A
O94         Zr99   2.425   1_455  S
O94         C105   1.290       .  A
O95        Zr129   2.448   1_545  S
O95         C105   1.293       .  A
O96        Zr128   2.475   1_545  S
O96         C104   1.299       .  A
O97         Zr99   2.443       .  S
O97         C103   1.294       .  A
O98         Zr99   2.444       .  S
O98         C102   1.293       .  A
Zr99        O100   2.324   1_645  S
Zr99        O101   2.344       .  S
Zr99        O109   2.335   1_645  S
Zr99        O107   2.350       .  S
O100       Zr126   2.340   1_455  S
O100       Zr129   2.326       .  S
O101       Zr127   2.348   1_545  S
O101       Zr128   2.349   1_545  S
C102       C1954   1.477       .  S
C103       C1645   1.488       .  S
C104       C1554   1.482       .  S
C105       C1565   1.482       .  S
H106        O107   0.968       .  S
O107       Zr126   2.341   1_545  S
O107       Zr128   2.344   1_545  S
H108        O109   0.965   1_545  S
O109       Zr127   2.340   1_455  S
O109       Zr129   2.329       .  S
O110       Zr126   2.440       .  S
O110        C133   1.293       .  A
O111       Zr127   2.441       .  S
O111        C134   1.293       .  A
O112       Zr128   2.483       .  S
O112        C135   1.301       .  A
O113       Zr129   2.444       .  S
O113        C136   1.294       .  A
O114       Zr129   2.463       .  S
O114        C137   1.297       .  A
O115       Zr128   2.483       .  S
O115        C138   1.301       .  A
O116       Zr130   2.445       .  S
O116        C139   1.294       .  A
O117       Zr130   2.444   1_455  S
O117        C140   1.292       .  A
O118       Zr128   2.421       .  S
O118        C139   1.290       .  A
O119       Zr129   2.385       .  S
O119        C140   1.284       .  A
O120       Zr126   2.434       .  S
O120        C135   1.291       .  A
O121       Zr127   2.428       .  S
O121        C138   1.290       .  A
O122       Zr127   2.434   1_455  S
O122        C137   1.291       .  A
O123       Zr126   2.432   1_455  S
O123        C136   1.291       .  A
O124       Zr130   2.465       .  S
O124        C133   1.297       .  A
O125       Zr130   2.472       .  S
O125        C134   1.298       .  A
Zr126       O132   2.343       .  S
Zr126       O144   2.341   1_655  S
Zr127       O131   2.329   1_655  S
Zr127       O142   2.313       .  S
Zr128       O132   2.359       .  S
Zr128       O142   2.351       .  S
Zr129       O131   2.339       .  S
Zr129       O144   2.357       .  S
Zr130       O131   2.344   1_655  S
Zr130       O132   2.352       .  S
Zr130       O144   2.348   1_655  S
Zr130       O142   2.336       .  S
C133       C1694   1.494       .  S
C134       C1614   1.501       .  S
C135       C1425   1.507       .  S
C136       C1445   1.489       .  S
C137       C1474   1.497       .  S
C138       C1494   1.501       .  S
C139       C1525   1.461       .  S
C140       C1505   1.449       .  S
H141        O142   0.964       .  S
H143        O144   0.968       .  S
C145        C146   1.408       .  A
C145        C150   1.412       .  A
C145       C1745   1.486       .  S
C146        C147   1.403       .  A
C146        H151   1.084       .  S
C147        C148   1.397       .  A
C147       C1574   1.484       .  S
C148        C149   1.398       .  A
C148        H152   1.084       .  S
C149        C150   1.410       .  A
C149       C1405   1.476       .  S
C150        H153   1.083       .  S
C154        C155   1.395       .  A
C154        C159   1.415       .  A
C154       C1394   1.480       .  S
C155        C156   1.390       .  A
C155        H160   1.086       .  S
C156        C157   1.398       .  A
C156       C1545   1.472       .  S
C157        C158   1.408       .  A
C157        H161   1.084       .  S
C158        C159   1.420       .  A
C158       C1734   1.487       .  S
C159        H162   1.083       .  S
C163        C164   1.414       .  A
C163        C168   1.403       .  A
C163       C1374   1.492       .  S
C164        C165   1.412       .  A
C164        H169   1.083       .  S
C165        C166   1.400       .  A
C165       C1765   1.488       .  S
C166        C167   1.412       .  A
C166        H170   1.080       .  S
C167        C168   1.409       .  A
C167       C1534   1.514       .  S
C168        H171   1.077       .  S
C172        C173   1.394       .  A
C172        C177   1.418       .  A
C172       C1714   1.481       .  S
C173        C174   1.385       .  A
C173        H178   1.086       .  S
C174        C175   1.391       .  A
C174       C1514   1.457       .  S
C175        C176   1.404       .  A
C175        H179   1.084       .  S
C176        C177   1.422       .  A
C176       C1345   1.488       .  S
C177        H180   1.083       .  S
C181        C182   1.415       .  A
C181        C186   1.404   1_565  A
C181       C1305   1.487       .  S
C182        C183   1.413       .  A
C182        H187   1.083       .  S
C183        C184   1.398   1_565  A
C183       C1485   1.481       .  S
C184        C185   1.398       .  A
C184        H188   1.085       .  S
C185        C186   1.401       .  A
C185       C1325   1.485       .  S
C186        H189   1.084       .  S
O190       Zr226   2.422       .  S
O190        C201   1.289       .  A
O191       Zr225   2.461       .  S
O191        C202   1.297       .  A
O192       Zr198   2.412       .  S
O192        C203   1.288       .  A
O193       Zr198   2.419       .  S
O193        C204   1.290       .  A
O194       Zr228   2.437       .  S
O194        C204   1.292       .  A
O195       Zr227   2.433       .  S
O195        C203   1.292       .  A
O196       Zr198   2.447   1_565  S
O196        C202   1.294       .  A
O197       Zr198   2.463       .  S
O197        C201   1.297       .  A
Zr198       O199   2.339   1_545  S
Zr198       O200   2.333       .  S
Zr198       O208   2.328       .  S
Zr198       O206   2.346   1_545  S
O199       Zr225   2.337       .  S
O199       Zr228   2.339   1_565  S
O200       Zr226   2.329       .  S
O200       Zr227   2.347       .  S
C201       C1414   1.484       .  S
C202       C1354   1.501       .  S
C203       C1254   1.475       .  S
C204       C1294   1.475       .  S
H205        O206   0.964       .  S
O206       Zr225   2.333       .  S
O206       Zr227   2.342   1_565  S
H207        O208   0.965       .  S
O208       Zr226   2.332       .  S
O208       Zr228   2.342       .  S
O209       Zr225   2.430       .  S
O209        C232   1.291       .  A
O210       Zr226   2.420       .  S
O210        C233   1.288       .  A
O211       Zr227   2.462   1_565  S
O211        C234   1.297       .  A
O212       Zr228   2.500   1_565  S
O212        C235   1.304       .  A
O213       Zr228   2.477       .  S
O213        C236   1.300       .  A
O214       Zr227   2.447       .  S
O214        C237   1.294       .  A
O215       Zr229   2.446       .  S
O215        C238   1.293       .  A
O216       Zr229   2.420       .  S
O216        C239   1.289       .  A
O217       Zr227   2.437       .  S
O217        C238   1.294       .  A
O218       Zr228   2.417       .  S
O218        C239   1.290       .  A
O219       Zr225   2.429       .  S
O219        C234   1.291       .  A
O220       Zr226   2.433       .  S
O220        C237   1.292       .  A
O221       Zr226   2.440       .  S
O221        C236   1.292       .  A
O222       Zr225   2.417       .  S
O222        C235   1.289       .  A
O223       Zr229   2.494   1_565  S
O223        C232   1.303       .  A
O224       Zr229   2.487       .  S
O224        C233   1.301       .  A
Zr225       O231   2.351       .  S
Zr225       O243   2.352       .  S
Zr226       O230   2.326       .  S
Zr226       O241   2.334       .  S
Zr227       O231   2.348   1_545  S
Zr227       O241   2.343       .  S
Zr228       O230   2.344       .  S
Zr228       O243   2.350   1_545  S
Zr229       O230   2.344       .  S
Zr229       O231   2.355   1_545  S
Zr229       O243   2.362   1_545  S
Zr229       O241   2.346       .  S
C232       C1365   1.502       .  S
C233       C1385   1.502       .  S
C234       C1185   1.490       .  S
C235       C1234   1.507       .  S
C236       C1205   1.503       .  S
C237       C1174   1.484       .  S
C238       C1334   1.480       .  S
C239       C1265   1.462       .  S
H240        O241   0.965       .  S
H242        O243   0.969       .  S
C244        C245   1.396       .  A
C244        C249   1.411       .  A
C244       C1154   1.473       .  S
C245        C246   1.390       .  A
C245        H250   1.086       .  S
C246        C247   1.393       .  A
C246       C1285   1.461       .  S
C247        C248   1.403       .  A
C247        H251   1.085       .  S
C248        C249   1.413       .  A
C248       C1454   1.475       .  S
C249        H252   1.083       .  S
C253        C254   1.415       .  A
C253        C258   1.399       .  A
C253       C1125   1.480       .  S
C254        C255   1.415       .  A
C254        H259   1.083       .  S
C255        C256   1.402       .  A
C255       C1434   1.486       .  S
C256        C257   1.402       .  A
C256        H260   1.084       .  S
C257        C258   1.395       .  A
C257       C1274   1.482   1_565  S
C258        H261   1.084       .  S
C262        C263   1.394       .  A
C262        C267   1.408       .  A
C262       C1105   1.470       .  S
C263        C264   1.391       .  A
C263        H268   1.085       .  S
C264        C265   1.402       .  A
C264       C1245   1.476       .  S
C265        C266   1.407       .  A
C265        H269   1.084       .  S
C266        C267   1.412       .  A
C266       C1465   1.480       .  S
C267        H270   1.083       .  S
O271       Zr307   2.435   1_554  S
O271        C282   1.292       .  A
O272       Zr306   2.418   1_554  S
O272        C283   1.289       .  A
O273       Zr279   2.457   1_545  S
O273        C284   1.296       .  A
O274       Zr279   2.439       .  S
O274        C285   1.294       .  A
O275       Zr309   2.436   1_554  S
O275        C285   1.292       .  A
O276       Zr308   2.403   1_554  S
O276        C284   1.287       .  A
O277       Zr279   2.458       .  S
O277        C283   1.296       .  A
O278       Zr279   2.479       .  S
O278        C282   1.300       .  A
Zr279       O280   2.341       .  S
Zr279       O281   2.340       .  S
Zr279       O289   2.353       .  S
Zr279       O287   2.350   1_565  S
O280       Zr306   2.339   1_554  S
O280       Zr309   2.346   1_554  S
O281       Zr307   2.334   1_554  S
O281       Zr308   2.337   1_564  S
C282       C1314   1.505       .  S
C283       C1114   1.490       .  S
C284       C1085   1.481       .  S
C285       C1065   1.477       .  S
H286        O287   0.965       .  S
O287       Zr306   2.337   1_544  S
O287       Zr308   2.339   1_554  S
H288        O289   0.966       .  S
O289       Zr307   2.348   1_554  S
O289       Zr309   2.351   1_554  S
O290       Zr306   2.437       .  S
O290        C313   1.292       .  A
O291       Zr307   2.441       .  S
O291        C314   1.293       .  A
O292       Zr308   2.455       .  S
O292        C315   1.295       .  A
O293       Zr309   2.472       .  S
O293        C316   1.299       .  A
O294       Zr309   2.501       .  S
O294        C317   1.304       .  A
O295       Zr308   2.445       .  S
O295        C318   1.294       .  A
O296       Zr310   2.442   1_545  S
O296        C319   1.292       .  A
O297       Zr310   2.419       .  S
O297        C320   1.290       .  A
O298       Zr308   2.403       .  S
O298        C319   1.287       .  A
O299       Zr309   2.436       .  S
O299        C320   1.291       .  A
O300       Zr306   2.441   1_545  S
O300        C315   1.292       .  A
O301       Zr307   2.447   1_545  S
O301        C318   1.294       .  A
O302       Zr307   2.420       .  S
O302        C317   1.289       .  A
O303       Zr306   2.431       .  S
O303        C316   1.291       .  A
O304       Zr310   2.457       .  S
O304        C313   1.296       .  A
O305       Zr310   2.450       .  S
O305        C314   1.295       .  A
Zr306       O312   2.327       .  S
Zr306       O324   2.327       .  S
Zr307       O311   2.345       .  S
Zr307       O322   2.339       .  S
Zr308       O312   2.329   1_545  S
Zr308       O322   2.340   1_545  S
Zr309       O311   2.349       .  S
Zr309       O324   2.353       .  S
Zr310       O311   2.352       .  S
Zr310       O312   2.339       .  S
Zr310       O324   2.337       .  S
Zr310       O322   2.339       .  S
C313       C1145   1.496       .  S
C314       C1134   1.492       .  S
C315       C1005   1.498       .  S
C316        C965   1.492       .  S
C317        C985   1.505       .  S
C318        C945   1.493       .  S
C319       C1025   1.469       .  S
C320       C1054   1.465       .  S
H321        O322   0.967   1_545  S
H323        O324   0.963       .  S
C325        C326   1.412       .  A
C325        C330   1.399       .  A
C325       C1165   1.477       .  S
C326        C327   1.413       .  A
C326        H331   1.083       .  S
C327        C328   1.403       .  A
C327        C925   1.480       .  S
C328        C329   1.396       .  A
C328        H332   1.085       .  S
C329        C330   1.394       .  A
C329       C1094   1.473       .  S
C330        H333   1.085       .  S
C334        C335   1.408       .  A
C334        C339   1.396       .  A
C334        C914   1.475       .  S
C335        C336   1.411       .  A
C335        H340   1.083       .  S
C336        C337   1.404       .  A
C336       C1194   1.476       .  S
C337        C338   1.401       .  A
C337        H341   1.084       .  S
C338        C339   1.400       .  A
C338       C1074   1.486       .  S
C339        H342   1.083       .  S
C343        C344   1.398       .  A
C343        C348   1.415       .  A
C343        C885   1.485       .  S
C344        C345   1.400       .  A
C344        H349   1.083       .  S
C345        C346   1.402       .  A
C345       C1045   1.487       .  S
C346        C347   1.404       .  A
C346        H350   1.084       .  S
C347        C348   1.416       .  A
C347       C1225   1.487       .  S
C348        H351   1.083       .  S
C352        C353   1.395       .  A
C352        C357   1.419       .  A
C352       C1214   1.484       .  S
C353        C354   1.388       .  A
C353        H358   1.086       .  S
C354        C355   1.393       .  A
C354       C1034   1.458       .  S
C355        C356   1.403       .  A
C355        H359   1.085       .  S
C356        C357   1.422       .  A
C356        C865   1.487       .  S
C357        H360   1.083       .  S
O361       Zr397   2.428   1_554  S
O361        C372   1.290       .  A
O362       Zr396   2.427   1_554  S
O362        C373   1.290       .  A
O363       Zr369   2.451   1_455  S
O363        C374   1.295       .  A
O364       Zr369   2.406       .  S
O364        C375   1.288       .  A
O365       Zr399   2.444   1_554  S
O365        C375   1.294       .  A
O366       Zr398   2.406   1_554  S
O366        C374   1.286       .  A
O367       Zr369   2.481       .  S
O367        C373   1.300       .  A
O368       Zr369   2.464       .  S
O368        C372   1.297       .  A
Zr369       O370   2.347       .  S
Zr369       O371   2.339   1_655  S
Zr369       O379   2.353       .  S
Zr369       O377   2.339   1_655  S
O370       Zr396   2.339   1_554  S
O370       Zr399   2.343   1_554  S
O371       Zr397   2.333   1_454  S
O371       Zr398   2.328   1_554  S
C372       C1934   1.493       .  S
C373       C1594   1.503       .  S
C374        C825   1.481       .  S
C375        C845   1.471       .  S
H376        O377   0.968       .  S
O377       Zr396   2.347   1_454  S
O377       Zr398   2.343   1_554  S
H378        O379   0.965       .  S
O379       Zr397   2.328   1_554  S
O379       Zr399   2.345   1_554  S
O380       Zr396   2.439       .  S
O380        C403   1.293       .  A
O381       Zr397   2.430       .  S
O381        C404   1.290       .  A
O382       Zr398   2.441       .  S
O382        C405   1.294       .  A
O383       Zr399   2.488       .  S
O383        C406   1.302       .  A
O384       Zr399   2.470       .  S
O384        C407   1.299       .  A
O385       Zr398   2.461       .  S
O385        C408   1.296       .  A
O386       Zr400   2.445   1_455  S
O386        C409   1.294       .  A
O387       Zr400   2.438       .  S
O387        C410   1.293       .  A
O388       Zr398   2.406       .  S
O388        C409   1.287       .  A
O389       Zr399   2.437       .  S
O389        C410   1.292       .  A
O390       Zr396   2.461   1_455  S
O390        C405   1.296       .  A
O391       Zr397   2.418   1_455  S
O391        C408   1.288       .  A
O392       Zr397   2.431       .  S
O392        C407   1.290       .  A
O393       Zr396   2.440       .  S
O393        C406   1.292       .  A
O394       Zr400   2.478       .  S
O394        C403   1.300       .  A
O395       Zr400   2.460       .  S
O395        C404   1.297       .  A
Zr396       O402   2.336   1_655  S
Zr396       O414   2.358       .  S
Zr397       O401   2.322       .  S
Zr397       O412   2.338   1_655  S
Zr398       O402   2.340       .  S
Zr398       O412   2.335       .  S
Zr399       O401   2.334       .  S
Zr399       O414   2.358       .  S
Zr400       O401   2.335       .  S
Zr400       O402   2.341   1_655  S
Zr400       O414   2.363       .  S
Zr400       O412   2.352   1_655  S
C403       C1674   1.498       .  S
C404       C1625   1.490       .  S
C405        C745   1.498       .  S
C406        C705   1.499       .  S
C407        C734   1.497       .  S
C408        C765   1.490       .  S
C409        C805   1.478       .  S
C410        C785   1.474       .  S
H411        O412   0.967       .  S
H413        O414   0.964       .  S
C415        C416   1.402       .  A
C415        C420   1.415       .  A
C415       C1814   1.486       .  S
C416        C417   1.403       .  A
C416        H421   1.082       .  S
C417        C418   1.400       .  A
C417        C854   1.488       .  S
C418        C419   1.398       .  A
C418        H422   1.085       .  S
C419        C420   1.416       .  A
C419        C694   1.486       .  S
C420        H423   1.083       .  S
C424        C425   1.414       .  A
C424        C429   1.403       .  A
C424        C674   1.480       .  S
C425        C426   1.412       .  A
C425        H430   1.083       .  S
C426        C427   1.396       .  A
C426       C1794   1.474       .  S
C427        C428   1.392       .  A
C427        H431   1.085       .  S
C428        C429   1.395       .  A
C428        C834   1.468       .  S
C429        H432   1.085       .  S
C433        C434   1.418       .  A
C433        C438   1.407       .  A
C433        C645   1.490       .  S
C434        C435   1.413       .  A
C434        H439   1.083       .  S
C435        C436   1.395       .  A
C435       C1834   1.476       .  S
C436        C437   1.389       .  A
C436        H440   1.086       .  S
C437        C438   1.397       .  A
C437        C814   1.471       .  S
C438        H441   1.084       .  S
C442        C443   1.404       .  A
C442        C447   1.417       .  A
C442       C1854   1.489       .  S
C443        C444   1.400       .  A
C443        H448   1.084       .  S
C444        C445   1.395       .  A
C444        C794   1.484       .  S
C445        C446   1.398       .  A
C445        H449   1.085       .  S
C446        C447   1.414       .  A
C446        C634   1.478       .  S
C447        H450   1.083       .  S
C451        C452   1.401       .  A
C451        C456   1.413   1_554  A
C451        C774   1.482       .  S
C452        C453   1.392       .  A
C452        H457   1.085       .  S
C453        C454   1.395   1_554  A
C453        C605   1.472       .  S
C454        C455   1.403       .  A
C454        H458   1.084       .  S
C455        C456   1.414       .  A
C455       C1014   1.484       .  S
C456        H459   1.083       .  S
O460       Zr496   2.447       .  S
O460        C471   1.293       .  A
O461       Zr495   2.434       .  S
O461        C472   1.291       .  A
O462       Zr468   2.418       .  S
O462        C473   1.290       .  A
O463       Zr468   2.414       .  S
O463        C474   1.288       .  A
O464       Zr498   2.449   1_554  S
O464        C474   1.294       .  A
O465       Zr497   2.438   1_554  S
O465        C473   1.293       .  A
O466       Zr468   2.467   1_556  S
O466        C472   1.298       .  A
O467       Zr468   2.446       .  S
O467        C471   1.295       .  A
Zr468       O469   2.333   1_554  S
Zr468       O470   2.336       .  S
Zr468       O478   2.342       .  S
Zr468       O476   2.344   1_554  S
O469       Zr495   2.349       .  S
O469       Zr498   2.356       .  S
O470       Zr496   2.330       .  S
O470       Zr497   2.334   1_554  S
C471        C934   1.494       .  S
C472        C874   1.500       .  S
C473        C614   1.477       .  S
C474        C545   1.461       .  S
H475        O476   0.965       .  S
O476       Zr495   2.329       .  S
O476       Zr497   2.344       .  S
H477        O478   0.964       .  S
O478       Zr496   2.329       .  S
O478       Zr498   2.332   1_554  S
O479       Zr495   2.436       .  S
O479        C502   1.291       .  A
O480       Zr496   2.435       .  S
O480        C503   1.292       .  A
O481       Zr497   2.464       .  S
O481        C504   1.297       .  A
O482       Zr498   2.470       .  S
O482        C505   1.299       .  A
O483       Zr498   2.503   1_554  S
O483        C506   1.304       .  A
O484       Zr497   2.461   1_554  S
O484        C507   1.296       .  A
O485       Zr499   2.448       .  S
O485        C508   1.293   1_556  A
O486       Zr499   2.456       .  S
O486        C509   1.296       .  A
O487       Zr497   2.410   1_554  S
O487        C508   1.289       .  A
O488       Zr498   2.428       .  S
O488        C509   1.292       .  A
O489       Zr495   2.435       .  S
O489        C504   1.292       .  A
O490       Zr496   2.432       .  S
O490        C507   1.291       .  A
O491       Zr496   2.391       .  S
O491        C506   1.284       .  A
O492       Zr495   2.417       .  S
O492        C505   1.289       .  A
O493       Zr499   2.473       .  S
O493        C502   1.299       .  A
O494       Zr499   2.458   1_554  S
O494        C503   1.296       .  A
Zr495       O501   2.341       .  S
Zr495       O513   2.320       .  S
Zr496       O500   2.351       .  S
Zr496       O511   2.321       .  S
Zr497       O501   2.349       .  S
Zr497       O511   2.348   1_556  S
Zr498       O500   2.350   1_556  S
Zr498       O513   2.347       .  S
Zr499       O500   2.355   1_556  S
Zr499       O501   2.356       .  S
Zr499       O513   2.331       .  S
Zr499       O511   2.357   1_556  S
C502        C894   1.502       .  S
C503        C905   1.490       .  S
C504        C654   1.495       .  S
C505        C625   1.488       .  S
C506        C685   1.500       .  S
C507        C665   1.486       .  S
C508        C574   1.456       .  S
C509        C585   1.480       .  S
H510        O511   0.963       .  S
H512        O513   0.962       .  S
C514        C515   1.405       .  A
C514        C519   1.420       .  A
C514        C994   1.498       .  S
C515        C516   1.409       .  A
C515        H520   1.081       .  S
C516        C517   1.408       .  A
C516        C594   1.512       .  S
C517        C518   1.399       .  A
C517        H521   1.081       .  S
C518        C519   1.418       .  A
C518        C714   1.495       .  S
C519        H522   1.083   1_556  S
C523        C524   1.412       .  A
C523        C528   1.398       .  A
C523        C974   1.478       .  S
C524        C525   1.414       .  A
C524        H529   1.083   1_554  S
C525        C526   1.404       .  A
C525        C754   1.483   1_554  S
C526        C527   1.398       .  A
C526        H530   1.084       .  S
C527        C528   1.394       .  A
C527        C565   1.475       .  S
C528        H531   1.086       .  S
C532        C533   1.415       .  A
C532        C537   1.397   1_556  A
C532        C725   1.481       .  S
C533        C534   1.417       .  A
C533        H538   1.083       .  S
C534        C535   1.404       .  A
C534        C954   1.482       .  S
C535        C536   1.396   1_556  A
C535        H539   1.085       .  S
C536        C537   1.393       .  A
C536        C554   1.470       .  S
C537        H540   1.086       .  S
C541        C542   1.405   1_556  A
C541        C546   1.395       .  A
C541        H551   1.083       .  S
C542        C543   1.404       .  A
C542        C547   1.473       .  S
C543        C544   1.395       .  A
C543        F548   1.358       .  S
C544        C545   1.404       .  A
C544        H549   1.084       .  S
C545        C546   1.399   1_554  A
C546        F550   1.357       .  S
C547        C552   1.406   1_554  A
C547        C556   1.402       .  A
C552        C553   1.394       .  A
C552        F557   1.358       .  S
C553        C554   1.401   1_556  A
C553        H558   1.084       .  S
C554        C555   1.405       .  A
C555        C556   1.396       .  A
C555        F559   1.357       .  S
C556        H560   1.083       .  S
C561        C562   1.400       .  A
C561        C566   1.391       .  A
C561        H571   1.084   1_554  S
C562        C563   1.402       .  A
C562        C567   1.466       .  S
C563        C564   1.397       .  A
C563        F568   1.357       .  S
C564        C565   1.407       .  A
C564        H569   1.083       .  S
C565        C566   1.407       .  A
C566        F570   1.358   1_554  S
C567        C572   1.400       .  A
C567        C576   1.407   1_554  A
C572        C573   1.391       .  A
C572        F577   1.358       .  S
C573        C574   1.404       .  A
C573        H578   1.084       .  S
C574        C575   1.398   1_554  A
C575        C576   1.397       .  A
C575        F579   1.357       .  S
C576        H580   1.083       .  S
C581        C582   1.401       .  A
C581        C586   1.392       .  A
C581        H591   1.083       .  S
C582        C583   1.412       .  A
C582        C587   1.485       .  S
C583        C584   1.400       .  A
C583        F588   1.358       .  S
C584        C585   1.404       .  A
C584        H589   1.083       .  S
C585        C586   1.412       .  A
C586        F590   1.356       .  S
C587        C592   1.412       .  A
C587        C596   1.409       .  A
C592        C593   1.394       .  A
C592        F597   1.357       .  S
C593        C594   1.408       .  A
C593        H598   1.081       .  S
C594        C595   1.410       .  A
C595        C596   1.403       .  A
C595        F599   1.357       .  S
C596        H600   1.083       .  S
C601        C602   1.399   1_556  A
C601        C606   1.392       .  A
C601        H611   1.084       .  S
C602        C603   1.400       .  A
C602        C607   1.460       .  S
C603        C604   1.395       .  A
C603        F608   1.358       .  S
C604        C605   1.406       .  A
C604        H609   1.083       .  S
C605        C606   1.405   1_554  A
C606        F610   1.357       .  S
C607        C612   1.398       .  A
C607        C616   1.399       .  A
C612        C613   1.391       .  A
C612        F617   1.358       .  S
C613        C614   1.409       .  A
C613        H618   1.083       .  S
C614        C615   1.410       .  A
C615        C616   1.396       .  A
C615        F619   1.357   1_554  S
C616        H620   1.083   1_554  S
C621        C622   1.400       .  A
C621        C626   1.396       .  A
C621        H631   1.083       .  S
C622        C623   1.411       .  A
C622        C627   1.489       .  S
C623        C624   1.402       .  A
C623        F628   1.357       .  S
C624        C625   1.404       .  A
C624        H629   1.083       .  S
C625        C626   1.414       .  A
C626        F630   1.356       .  S
C627        C632   1.410       .  A
C627        C636   1.404       .  A
C632        C633   1.402       .  A
C632        F637   1.358       .  S
C633        C634   1.403       .  A
C633        H638   1.083       .  S
C634        C635   1.407       .  A
C635        C636   1.400       .  A
C635        F639   1.357       .  S
C636        H640   1.083       .  S
C641        C642   1.406       .  A
C641        C646   1.408       .  A
C641        H651   1.083       .  S
C642        C643   1.401       .  A
C642        C647   1.482       .  S
C643        C644   1.397       .  A
C643        F648   1.358       .  S
C644        C645   1.408       .  A
C644        H649   1.084       .  S
C645        C646   1.408       .  A
C646        F650   1.357       .  S
C647        C652   1.401       .  A
C647        C656   1.405       .  A
C652        C653   1.400       .  A
C652        F657   1.357       .  S
C653        C654   1.411       .  A
C653        H658   1.083       .  S
C654        C655   1.412       .  A
C655        C656   1.406       .  A
C655        F659   1.357       .  S
C656        H660   1.083       .  S
C661        C662   1.405       .  A
C661        C666   1.402       .  A
C661        H671   1.083       .  S
C662        C663   1.404       .  A
C662        C667   1.484       .  S
C663        C664   1.401       .  A
C663        F668   1.357       .  S
C664        C665   1.409       .  A
C664        H669   1.083       .  S
C665        C666   1.407       .  A
C666        F670   1.356       .  S
C667        C672   1.407       .  A
C667        C676   1.403       .  A
C672        C673   1.402       .  A
C672        F677   1.357       .  S
C673        C674   1.403       .  A
C673        H678   1.083       .  S
C674        C675   1.408       .  A
C675        C676   1.400       .  A
C675        F679   1.358       .  S
C676        H680   1.083       .  S
C681        C682   1.411       .  A
C681        C686   1.409       .  A
C681        H691   1.083       .  S
C682        C683   1.401       .  A
C682        C687   1.493       .  S
C683        C684   1.396       .  A
C683        F688   1.358       .  S
C684        C685   1.416       .  A
C684        H689   1.082       .  S
C685        C686   1.407       .  A
C686        F690   1.356       .  S
C687        C692   1.412       .  A
C687        C696   1.404       .  A
C692        C693   1.405       .  A
C692        F697   1.358       .  S
C693        C694   1.406       .  A
C693        H698   1.083       .  S
C694        C695   1.408       .  A
C695        C696   1.402       .  A
C695        F699   1.357       .  S
C696        H700   1.083       .  S
C701        C702   1.413   1_556  A
C701        C706   1.411       .  A
C701        H711   1.083       .  S
C702        C703   1.410       .  A
C702        C707   1.510   1_554  S
C703        C704   1.405       .  A
C703        F708   1.358       .  S
C704        C705   1.409   1_554  A
C704        H709   1.083       .  S
C705        C706   1.407       .  A
C706        F710   1.357       .  S
C707        C712   1.414       .  A
C707        C716   1.410   1_556  A
C712        C713   1.407       .  A
C712        F717   1.357       .  S
C713        C714   1.405       .  A
C713        H718   1.083       .  S
C714        C715   1.409       .  A
C715        C716   1.409   1_556  A
C715        F719   1.358       .  S
C716        H720   1.083       .  S
C721        C722   1.407   1_554  A
C721        C726   1.406       .  A
C721        H731   1.083       .  S
C722        C723   1.407       .  A
C722        C727   1.492       .  S
C723        C724   1.400       .  A
C723        F728   1.357       .  S
C724        C725   1.404       .  A
C724        H729   1.084       .  S
C725        C726   1.407   1_556  A
C726        F730   1.357       .  S
C727        C732   1.409       .  A
C727        C736   1.402       .  A
C732        C733   1.402       .  A
C732        F737   1.357       .  S
C733        C734   1.407       .  A
C733        H738   1.083       .  S
C734        C735   1.417       .  A
C735        C736   1.404       .  A
C735        F739   1.358   1_556  S
C736        H740   1.083       .  S
C741        C742   1.406       .  A
C741        C746   1.405       .  A
C741        H751   1.083       .  S
C742        C743   1.408       .  A
C742        C747   1.494       .  S
C743        C744   1.399       .  A
C743        F748   1.358       .  S
C744        C745   1.409       .  A
C744        H749   1.083       .  S
C745        C746   1.413       .  A
C746        F750   1.357       .  S
C747        C752   1.409       .  A
C747        C756   1.409   1_556  A
C752        C753   1.400       .  A
C752        F757   1.358       .  S
C753        C754   1.405       .  A
C753        H758   1.084       .  S
C754        C755   1.404   1_556  A
C755        C756   1.405       .  A
C755        F759   1.357       .  S
C756        H760   1.083       .  S
C761        C762   1.399   1_556  A
C761        C766   1.396       .  A
C761        H771   1.083       .  S
C762        C763   1.409       .  A
C762        C767   1.483       .  S
C763        C764   1.401       .  A
C763        F768   1.358       .  S
C764        C765   1.406   1_554  A
C764        H769   1.083       .  S
C765        C766   1.415       .  A
C766        F770   1.357       .  S
C767        C772   1.404       .  A
C767        C776   1.407   1_554  A
C772        C773   1.396       .  A
C772        F777   1.358       .  S
C773        C774   1.408       .  A
C773        H778   1.084       .  S
C774        C775   1.405   1_554  A
C775        C776   1.401       .  A
C775        F779   1.357       .  S
C776        H780   1.083       .  S
C781        C782   1.404       .  A
C781        C786   1.395       .  A
C781        H791   1.084       .  S
C782        C783   1.405       .  A
C782        C787   1.472       .  S
C783        C784   1.398       .  A
C783        F788   1.358       .  S
C784        C785   1.407       .  A
C784        H789   1.083       .  S
C785        C786   1.404       .  A
C786        F790   1.357       .  S
C787        C792   1.405       .  A
C787        C796   1.399       .  A
C792        C793   1.401       .  A
C792        F797   1.358       .  S
C793        C794   1.411       .  A
C793        H798   1.083       .  S
C794        C795   1.409       .  A
C795        C796   1.386       .  A
C795        F799   1.357       .  S
C796        H800   1.084       .  S
C801        C802   1.394       .  A
C801        C806   1.385       .  A
C801        H811   1.084       .  S
C802        C803   1.403       .  A
C802        C807   1.461       .  S
C803        C804   1.399       .  A
C803        F808   1.357       .  S
C804        C805   1.408       .  A
C804        H809   1.083       .  S
C805        C806   1.413       .  A
C806        F810   1.358       .  S
C807        C812   1.400       .  A
C807        C816   1.402       .  A
C812        C813   1.392       .  A
C812        F817   1.358       .  S
C813        C814   1.406       .  A
C813        H818   1.083       .  S
C814        C815   1.405       .  A
C815        C816   1.393       .  A
C815        F819   1.357       .  S
C816        H820   1.084       .  S
C821        C822   1.397       .  A
C821        C826   1.391       .  A
C821        H831   1.084       .  S
C822        C823   1.404       .  A
C822        C827   1.469       .  S
C823        C824   1.397       .  A
C823        F828   1.357       .  S
C824        C825   1.406       .  A
C824        H829   1.083       .  S
C825        C826   1.415       .  A
C826        F830   1.358       .  S
C827        C832   1.403       .  A
C827        C836   1.404       .  A
C832        C833   1.393       .  A
C832        F837   1.357       .  S
C833        C834   1.404       .  A
C833        H838   1.084       .  S
C834        C835   1.402       .  A
C835        C836   1.394       .  A
C835        F839   1.358       .  S
C836        H840   1.083       .  S
C841        C842   1.403       .  A
C841        C846   1.394       .  A
C841        H851   1.083       .  S
C842        C843   1.404       .  A
C842        C847   1.470       .  S
C843        C844   1.391       .  A
C843        F848   1.358       .  S
C844        C845   1.406       .  A
C844        H849   1.083       .  S
C845        C846   1.407       .  A
C846        F850   1.358       .  S
C847        C852   1.400       .  A
C847        C856   1.404       .  A
C852        C853   1.384       .  A
C852        F857   1.358       .  S
C853        C854   1.409       .  A
C853        H858   1.082       .  S
C854        C855   1.411       .  A
C855        C856   1.400       .  A
C855        F859   1.357       .  S
C856        H860   1.083       .  S
C861        C862   1.404       .  A
C861        C866   1.403       .  A
C861        H871   1.083       .  S
C862        C863   1.408       .  A
C862        C867   1.490       .  S
C863        C864   1.405       .  A
C863        F868   1.357       .  S
C864        C865   1.404       .  A
C864        H869   1.083       .  S
C865        C866   1.410       .  A
C866        F870   1.358       .  S
C867        C872   1.407       .  A
C867        C876   1.401       .  A
C872        C873   1.404       .  A
C872        F877   1.357       .  S
C873        C874   1.409       .  A
C873        H878   1.083       .  S
C874        C875   1.417       .  A
C875        C876   1.402       .  A
C875        F879   1.358       .  S
C876        H880   1.083       .  S
C881        C882   1.409       .  A
C881        C886   1.402       .  A
C881        H891   1.083       .  S
C882        C883   1.412       .  A
C882        C887   1.503       .  S
C883        C884   1.406       .  A
C883        F888   1.357       .  S
C884        C885   1.405       .  A
C884        H889   1.083       .  S
C885        C886   1.405       .  A
C886        F890   1.358       .  S
C887        C892   1.413       .  A
C887        C896   1.405       .  A
C892        C893   1.406       .  A
C892        F897   1.357       .  S
C893        C894   1.408       .  A
C893        H898   1.083       .  S
C894        C895   1.416       .  A
C895        C896   1.401       .  A
C895        F899   1.357       .  S
C896        H900   1.083       .  S
C901        C902   1.401       .  A
C901        C906   1.394       .  A
C901        H911   1.083       .  S
C902        C903   1.411       .  A
C902        C907   1.489       .  S
C903        C904   1.407       .  A
C903        F908   1.358       .  S
C904        C905   1.408       .  A
C904        H909   1.083       .  S
C905        C906   1.410       .  A
C906        F910   1.356       .  S
C907        C912   1.409       .  A
C907        C916   1.406       .  A
C912        C913   1.397       .  A
C912        F917   1.358       .  S
C913        C914   1.400       .  A
C913        H918   1.084       .  S
C914        C915   1.407       .  A
C915        C916   1.404       .  A
C915        F919   1.358       .  S
C916        H920   1.083       .  S
C921        C922   1.405       .  A
C921        C926   1.404       .  A
C921        H931   1.083       .  S
C922        C923   1.404       .  A
C922        C927   1.482       .  S
C923        C924   1.398       .  A
C923        F928   1.357       .  S
C924        C925   1.405       .  A
C924        H929   1.084       .  S
C925        C926   1.406       .  A
C926        F930   1.357       .  S
C927        C932   1.404       .  A
C927        C936   1.402       .  A
C932        C933   1.396       .  A
C932        F937   1.358       .  S
C933        C934   1.408       .  A
C933        H938   1.083       .  S
C934        C935   1.415       .  A
C935        C936   1.405       .  A
C935        F939   1.357       .  S
C936        H940   1.083       .  S
C941        C942   1.404       .  A
C941        C946   1.402       .  A
C941        H951   1.083       .  S
C942        C943   1.408       .  A
C942        C947   1.491       .  S
C943        C944   1.401       .  A
C943        F948   1.358       .  S
C944        C945   1.409       .  A
C944        H949   1.083       .  S
C945        C946   1.412       .  A
C946        F950   1.357       .  S
C947        C952   1.408   1_556  A
C947        C956   1.406       .  A
C952        C953   1.402       .  A
C952        F957   1.357       .  S
C953        C954   1.403   1_554  A
C953        H958   1.083       .  S
C954        C955   1.407       .  A
C955        C956   1.403       .  A
C955        F959   1.357       .  S
C956        H960   1.083       .  S
C961        C962   1.408       .  A
C961        C966   1.402       .  A
C961        H971   1.083       .  S
C962        C963   1.406   1_556  A
C962        C967   1.494       .  S
C963        C964   1.401       .  A
C963        F968   1.357       .  S
C964        C965   1.410   1_554  A
C964        H969   1.083       .  S
C965        C966   1.408       .  A
C966        F970   1.357       .  S
C967        C972   1.409       .  A
C967        C976   1.408   1_556  A
C972        C973   1.400       .  A
C972        F977   1.357       .  S
C973        C974   1.404   1_556  A
C973        H978   1.084       .  S
C974        C975   1.406       .  A
C975        C976   1.402       .  A
C975        F979   1.357       .  S
C976        H980   1.083       .  S
C981        C982   1.403   1_554  A
C981        C986   1.400       .  A
C981        H991   1.083       .  S
C982        C983   1.413       .  A
C982        C987   1.503       .  S
C983        C984   1.413       .  A
C983        F988   1.356       .  S
C984        C985   1.409       .  A
C984        H989   1.083       .  S
C985        C986   1.417   1_556  A
C986        F990   1.357       .  S
C987        C992   1.410       .  A
C987        C996   1.410   1_556  A
C992        C993   1.402       .  A
C992        F997   1.358       .  S
C993        C994   1.407       .  A
C993        H998   1.084       .  S
C994        C995   1.409       .  A
C995        C996   1.412   1_556  A
C995        F999   1.357   1_556  S
C996       H1000   1.083       .  S
C1001      C1002   1.403       .  A
C1001      C1006   1.401       .  A
C1001      H1011   1.083       .  S
C1002      C1003   1.410       .  A
C1002      C1007   1.492       .  S
C1003      C1004   1.402       .  A
C1003      F1008   1.358       .  S
C1004      C1005   1.409       .  A
C1004      H1009   1.083       .  S
C1005      C1006   1.415       .  A
C1006      F1010   1.357       .  S
C1007      C1012   1.408       .  A
C1007      C1016   1.408       .  A
C1012      C1013   1.399       .  A
C1012      F1017   1.358       .  S
C1013      C1014   1.406       .  A
C1013      H1018   1.084       .  S
C1014      C1015   1.404   1_556  A
C1015      C1016   1.402   1_554  A
C1015      F1019   1.357       .  S
C1016      H1020   1.083   1_556  S
C1021      C1022   1.405       .  A
C1021      C1026   1.400       .  A
C1021      H1031   1.083       .  S
C1022      C1023   1.398       .  A
C1022      C1027   1.463       .  S
C1023      C1024   1.386       .  A
C1023      F1028   1.358       .  S
C1024      C1025   1.406       .  A
C1024      H1029   1.084       .  S
C1025      C1026   1.406       .  A
C1026      F1030   1.357       .  S
C1027      C1032   1.403       .  A
C1027      C1036   1.403       .  A
C1032      C1033   1.392       .  A
C1032      F1037   1.358       .  S
C1033      C1034   1.399       .  A
C1033      H1038   1.084       .  S
C1034      C1035   1.402       .  A
C1035      C1036   1.395       .  A
C1035      F1039   1.358       .  S
C1036      H1040   1.083       .  S
C1041      C1042   1.401       .  A
C1041      C1046   1.398       .  A
C1041      H1051   1.083       .  S
C1042      C1043   1.407       .  A
C1042      C1047   1.472       .  S
C1043      C1044   1.388       .  A
C1043      F1048   1.358       .  S
C1044      C1045   1.404       .  A
C1044      H1049   1.082       .  S
C1045      C1046   1.412       .  A
C1046      F1050   1.357       .  S
C1047      C1052   1.401       .  A
C1047      C1056   1.409       .  A
C1052      C1053   1.388       .  A
C1052      F1057   1.358       .  S
C1053      C1054   1.405       .  A
C1053      H1058   1.084       .  S
C1054      C1055   1.402       .  A
C1055      C1056   1.398       .  A
C1055      F1059   1.358       .  S
C1056      H1060   1.083       .  S
C1061      C1062   1.400       .  A
C1061      C1066   1.393       .  A
C1061      H1071   1.083       .  S
C1062      C1063   1.411       .  A
C1062      C1067   1.480       .  S
C1063      C1064   1.400       .  A
C1063      F1068   1.358       .  S
C1064      C1065   1.403       .  A
C1064      H1069   1.083       .  S
C1065      C1066   1.407       .  A
C1066      F1070   1.354       .  S
C1067      C1072   1.407       .  A
C1067      C1076   1.403       .  A
C1072      C1073   1.391       .  A
C1072      F1077   1.358       .  S
C1073      C1074   1.406       .  A
C1073      H1078   1.082       .  S
C1074      C1075   1.410       .  A
C1075      C1076   1.398       .  A
C1075      F1079   1.358       .  S
C1076      H1080   1.083       .  S
C1081      C1082   1.403       .  A
C1081      C1086   1.396       .  A
C1081      H1091   1.083       .  S
C1082      C1083   1.401       .  A
C1082      C1087   1.472       .  S
C1083      C1084   1.393       .  A
C1083      F1088   1.358       .  S
C1084      C1085   1.411       .  A
C1084      H1089   1.083       .  S
C1085      C1086   1.407       .  A
C1086      F1090   1.357       .  S
C1087      C1092   1.406       .  A
C1087      C1096   1.402       .  A
C1092      C1093   1.395       .  A
C1092      F1097   1.357       .  S
C1093      C1094   1.403       .  A
C1093      H1098   1.083       .  S
C1094      C1095   1.406       .  A
C1095      C1096   1.393       .  A
C1095      F1099   1.358       .  S
C1096      H1100   1.084       .  S
C1101      C1102   1.404       .  A
C1101      C1106   1.400       .  A
C1101      H1111   1.083   1_565  S
C1102      C1103   1.404       .  A
C1102      C1107   1.477       .  S
C1103      C1104   1.397       .  A
C1103      F1108   1.358       .  S
C1104      C1105   1.405       .  A
C1104      H1109   1.084       .  S
C1105      C1106   1.404       .  A
C1106      F1110   1.357   1_565  S
C1107      C1112   1.399       .  A
C1107      C1116   1.404       .  A
C1112      C1113   1.397       .  A
C1112      F1117   1.357       .  S
C1113      C1114   1.412       .  A
C1113      H1118   1.083       .  S
C1114      C1115   1.410       .  A
C1115      C1116   1.399       .  A
C1115      F1119   1.357       .  S
C1116      H1120   1.083       .  S
C1121      C1122   1.407       .  A
C1121      C1126   1.403       .  A
C1121      H1131   1.083       .  S
C1122      C1123   1.410       .  A
C1122      C1127   1.495       .  S
C1123      C1124   1.401       .  A
C1123      F1128   1.357       .  S
C1124      C1125   1.402       .  A
C1124      H1129   1.083       .  S
C1125      C1126   1.407       .  A
C1126      F1130   1.358       .  S
C1127      C1132   1.411       .  A
C1127      C1136   1.405       .  A
C1132      C1133   1.402       .  A
C1132      F1137   1.357       .  S
C1133      C1134   1.407       .  A
C1133      H1138   1.083       .  S
C1134      C1135   1.412       .  A
C1135      C1136   1.400       .  A
C1135      F1139   1.358       .  S
C1136      H1140   1.083       .  S
C1141      C1142   1.406       .  A
C1141      C1146   1.403       .  A
C1141      H1151   1.083       .  S
C1142      C1143   1.401       .  A
C1142      C1147   1.485       .  S
C1143      C1144   1.399       .  A
C1143      F1148   1.357       .  S
C1144      C1145   1.412       .  A
C1144      H1149   1.083       .  S
C1145      C1146   1.412       .  A
C1146      F1150   1.357       .  S
C1147      C1152   1.408       .  A
C1147      C1156   1.404       .  A
C1152      C1153   1.402       .  A
C1152      F1157   1.357   1_565  S
C1153      C1154   1.404       .  A
C1153      H1158   1.083   1_565  S
C1154      C1155   1.405       .  A
C1155      C1156   1.399       .  A
C1155      F1159   1.358       .  S
C1156      H1160   1.083       .  S
C1161      C1162   1.405       .  A
C1161      C1166   1.399       .  A
C1161      H1171   1.083       .  S
C1162      C1163   1.410       .  A
C1162      C1167   1.487       .  S
C1163      C1164   1.400       .  A
C1163      F1168   1.357       .  S
C1164      C1165   1.401       .  A
C1164      H1169   1.083       .  S
C1165      C1166   1.408       .  A
C1166      F1170   1.358       .  S
C1167      C1172   1.404       .  A
C1167      C1176   1.409       .  A
C1172      C1173   1.395       .  A
C1172      F1177   1.357       .  S
C1173      C1174   1.407       .  A
C1173      H1178   1.083       .  S
C1174      C1175   1.409       .  A
C1175      C1176   1.403       .  A
C1175      F1179   1.358       .  S
C1176      H1180   1.083       .  S
C1181      C1182   1.400       .  A
C1181      C1186   1.398       .  A
C1181      H1191   1.083       .  S
C1182      C1183   1.408       .  A
C1182      C1187   1.483       .  S
C1183      C1184   1.403       .  A
C1183      F1188   1.358       .  S
C1184      C1185   1.407       .  A
C1184      H1189   1.083       .  S
C1185      C1186   1.413       .  A
C1186      F1190   1.358       .  S
C1187      C1192   1.405       .  A
C1187      C1196   1.405       .  A
C1192      C1193   1.400       .  A
C1192      F1197   1.357       .  S
C1193      C1194   1.404       .  A
C1193      H1198   1.084       .  S
C1194      C1195   1.405       .  A
C1195      C1196   1.401       .  A
C1195      F1199   1.357       .  S
C1196      H1200   1.083       .  S
C1201      C1202   1.402       .  A
C1201      C1206   1.406       .  A
C1201      H1211   1.083       .  S
C1202      C1203   1.407       .  A
C1202      C1207   1.493       .  S
C1203      C1204   1.404       .  A
C1203      F1208   1.357       .  S
C1204      C1205   1.408       .  A
C1204      H1209   1.082       .  S
C1205      C1206   1.418       .  A
C1206      F1210   1.358       .  S
C1207      C1212   1.407       .  A
C1207      C1216   1.405       .  A
C1212      C1213   1.403       .  A
C1212      F1217   1.357       .  S
C1213      C1214   1.406       .  A
C1213      H1218   1.083       .  S
C1214      C1215   1.408       .  A
C1215      C1216   1.405       .  A
C1215      F1219   1.357       .  S
C1216      H1220   1.083       .  S
C1221      C1222   1.409       .  A
C1221      C1226   1.403       .  A
C1221      H1231   1.083       .  S
C1222      C1223   1.410       .  A
C1222      C1227   1.501       .  S
C1223      C1224   1.407       .  A
C1223      F1228   1.357       .  S
C1224      C1225   1.406       .  A
C1224      H1229   1.083       .  S
C1225      C1226   1.405       .  A
C1226      F1230   1.357       .  S
C1227      C1232   1.405       .  A
C1227      C1236   1.411       .  A
C1232      C1233   1.400       .  A
C1232      F1237   1.358       .  S
C1233      C1234   1.415       .  A
C1233      H1238   1.082       .  S
C1234      C1235   1.410       .  A
C1235      C1236   1.411       .  A
C1235      F1239   1.356       .  S
C1236      H1240   1.083       .  S
C1241      C1242   1.403       .  A
C1241      C1246   1.394       .  A
C1241      H1251   1.084       .  S
C1242      C1243   1.401   1_545  A
C1242      C1247   1.467       .  S
C1243      C1244   1.392       .  A
C1243      F1248   1.358       .  S
C1244      C1245   1.407       .  A
C1244      H1249   1.083       .  S
C1245      C1246   1.405   1_565  A
C1246      F1250   1.357       .  S
C1247      C1252   1.404       .  A
C1247      C1256   1.397       .  A
C1252      C1253   1.397       .  A
C1252      F1257   1.358       .  S
C1253      C1254   1.408       .  A
C1253      H1258   1.083       .  S
C1254      C1255   1.411       .  A
C1255      C1256   1.386       .  A
C1255      F1259   1.358   1_545  S
C1256      H1260   1.084   1_545  S
C1261      C1262   1.401       .  A
C1261      C1266   1.390       .  A
C1261      H1271   1.084       .  S
C1262      C1263   1.411       .  A
C1262      C1267   1.469       .  S
C1263      C1264   1.392       .  A
C1263      F1268   1.357       .  S
C1264      C1265   1.397       .  A
C1264      H1269   1.083       .  S
C1265      C1266   1.406       .  A
C1266      F1270   1.355       .  S
C1267      C1272   1.401       .  A
C1267      C1276   1.402       .  A
C1272      C1273   1.397       .  A
C1272      F1277   1.357       .  S
C1273      C1274   1.408       .  A
C1273      H1278   1.083       .  S
C1274      C1275   1.410       .  A
C1275      C1276   1.387       .  A
C1275      F1279   1.358       .  S
C1276      H1280   1.084       .  S
C1281      C1282   1.407       .  A
C1281      C1286   1.396       .  A
C1281      H1291   1.083       .  S
C1282      C1283   1.407   1_545  A
C1282      C1287   1.477       .  S
C1283      C1284   1.390       .  A
C1283      F1288   1.358       .  S
C1284      C1285   1.399       .  A
C1284      H1289   1.084       .  S
C1285      C1286   1.400   1_565  A
C1286      F1290   1.357       .  S
C1287      C1292   1.404       .  A
C1287      C1296   1.406       .  A
C1292      C1293   1.390       .  A
C1292      F1297   1.358       .  S
C1293      C1294   1.406       .  A
C1293      H1298   1.083       .  S
C1294      C1295   1.407       .  A
C1295      C1296   1.396       .  A
C1295      F1299   1.358   1_545  S
C1296      H1300   1.083   1_545  S
C1301      C1302   1.405       .  A
C1301      C1306   1.401   1_565  A
C1301      H1311   1.083   1_565  S
C1302      C1303   1.408       .  A
C1302      C1307   1.491       .  S
C1303      C1304   1.406       .  A
C1303      F1308   1.357       .  S
C1304      C1305   1.407       .  A
C1304      H1309   1.083       .  S
C1305      C1306   1.407   1_565  A
C1306      F1310   1.357       .  S
C1307      C1312   1.409       .  A
C1307      C1316   1.399       .  A
C1312      C1313   1.410       .  A
C1312      F1317   1.357       .  S
C1313      C1314   1.411       .  A
C1313      H1318   1.083       .  S
C1314      C1315   1.418       .  A
C1315      C1316   1.398       .  A
C1315      F1319   1.357       .  S
C1316      H1320   1.084       .  S
C1321      C1322   1.400       .  A
C1321      C1326   1.385       .  A
C1321      H1331   1.084       .  S
C1322      C1323   1.405       .  A
C1322      C1327   1.477       .  S
C1323      C1324   1.403       .  A
C1323      F1328   1.357       .  S
C1324      C1325   1.411       .  A
C1324      H1329   1.083       .  S
C1325      C1326   1.409       .  A
C1326      F1330   1.357       .  S
C1327      C1332   1.402       .  A
C1327      C1336   1.407       .  A
C1332      C1333   1.390       .  A
C1332      F1337   1.358       .  S
C1333      C1334   1.406       .  A
C1333      H1338   1.084       .  S
C1334      C1335   1.409       .  A
C1335      C1336   1.404       .  A
C1335      F1339   1.357       .  S
C1336      H1340   1.083       .  S
C1341      C1342   1.407       .  A
C1341      C1346   1.406       .  A
C1341      H1351   1.083       .  S
C1342      C1343   1.406       .  A
C1342      C1347   1.491       .  S
C1343      C1344   1.400       .  A
C1343      F1348   1.358       .  S
C1344      C1345   1.407       .  A
C1344      H1349   1.084       .  S
C1345      C1346   1.406       .  A
C1346      F1350   1.357       .  S
C1347      C1352   1.405       .  A
C1347      C1356   1.405       .  A
C1352      C1353   1.405       .  A
C1352      F1357   1.357       .  S
C1353      C1354   1.411       .  A
C1353      H1358   1.083       .  S
C1354      C1355   1.414       .  A
C1355      C1356   1.402       .  A
C1355      F1359   1.358       .  S
C1356      H1360   1.083       .  S
C1361      C1362   1.404       .  A
C1361      C1366   1.401       .  A
C1361      H1371   1.083       .  S
C1362      C1363   1.414       .  A
C1362      C1367   1.503       .  S
C1363      C1364   1.410       .  A
C1363      F1368   1.356       .  S
C1364      C1365   1.407       .  A
C1364      H1369   1.083       .  S
C1365      C1366   1.415       .  A
C1366      F1370   1.358       .  S
C1367      C1372   1.411       .  A
C1367      C1376   1.409       .  A
C1372      C1373   1.407       .  A
C1372      F1377   1.357       .  S
C1373      C1374   1.406       .  A
C1373      H1378   1.083       .  S
C1374      C1375   1.407       .  A
C1375      C1376   1.403       .  A
C1375      F1379   1.358       .  S
C1376      H1380   1.083       .  S
C1381      C1382   1.396       .  A
C1381      C1386   1.400       .  A
C1381      H1391   1.083       .  S
C1382      C1383   1.408       .  A
C1382      C1387   1.485       .  S
C1383      C1384   1.407       .  A
C1383      F1388   1.357       .  S
C1384      C1385   1.409       .  A
C1384      H1389   1.083       .  S
C1385      C1386   1.420       .  A
C1386      F1390   1.357       .  S
C1387      C1392   1.405       .  A
C1387      C1396   1.402       .  A
C1392      C1393   1.405       .  A
C1392      F1397   1.357       .  S
C1393      C1394   1.407       .  A
C1393      H1398   1.083       .  S
C1394      C1395   1.407       .  A
C1395      C1396   1.402       .  A
C1395      F1399   1.357       .  S
C1396      H1400   1.083       .  S
C1401      C1402   1.405       .  A
C1401      C1406   1.401       .  A
C1401      H1411   1.083       .  S
C1402      C1403   1.407       .  A
C1402      C1407   1.486       .  S
C1403      C1404   1.400       .  A
C1403      F1408   1.357       .  S
C1404      C1405   1.404       .  A
C1404      H1409   1.083       .  S
C1405      C1406   1.405       .  A
C1406      F1410   1.358       .  S
C1407      C1412   1.409       .  A
C1407      C1416   1.402       .  A
C1412      C1413   1.401       .  A
C1412      F1417   1.357       .  S
C1413      C1414   1.404       .  A
C1413      H1418   1.083       .  S
C1414      C1415   1.411       .  A
C1415      C1416   1.400       .  A
C1415      F1419   1.358       .  S
C1416      H1420   1.083       .  S
C1421      C1422   1.403       .  A
C1421      C1426   1.401       .  A
C1421      H1431   1.083       .  S
C1422      C1423   1.411       .  A
C1422      C1427   1.500       .  S
C1423      C1424   1.409       .  A
C1423      F1428   1.357       .  S
C1424      C1425   1.409       .  A
C1424      H1429   1.083       .  S
C1425      C1426   1.418       .  A
C1426      F1430   1.356       .  S
C1427      C1432   1.411       .  A
C1427      C1436   1.407       .  A
C1432      C1433   1.408       .  A
C1432      F1437   1.357       .  S
C1433      C1434   1.405       .  A
C1433      H1438   1.083       .  S
C1434      C1435   1.405       .  A
C1435      C1436   1.401       .  A
C1435      F1439   1.358       .  S
C1436      H1440   1.083       .  S
C1441      C1442   1.401       .  A
C1441      C1446   1.398       .  A
C1441      H1451   1.083       .  S
C1442      C1443   1.406       .  A
C1442      C1447   1.481       .  S
C1443      C1444   1.397       .  A
C1443      F1448   1.358       .  S
C1444      C1445   1.408       .  A
C1444      H1449   1.083       .  S
C1445      C1446   1.414       .  A
C1446      F1450   1.357       .  S
C1447      C1452   1.408       .  A
C1447      C1456   1.403       .  A
C1452      C1453   1.400       .  A
C1452      F1457   1.357   1_565  S
C1453      C1454   1.402       .  A
C1453      H1458   1.083   1_565  S
C1454      C1455   1.406       .  A
C1455      C1456   1.397       .  A
C1455      F1459   1.358       .  S
C1456      H1460   1.083       .  S
C1461      C1462   1.407       .  A
C1461      C1466   1.405       .  A
C1461      H1471   1.083       .  S
C1462      C1463   1.406       .  A
C1462      C1467   1.487       .  S
C1463      C1464   1.398       .  A
C1463      F1468   1.357       .  S
C1464      C1465   1.403       .  A
C1464      H1469   1.083       .  S
C1465      C1466   1.406       .  A
C1466      F1470   1.357   1_565  S
C1467      C1472   1.406       .  A
C1467      C1476   1.402       .  A
C1472      C1473   1.400       .  A
C1472      F1477   1.357       .  S
C1473      C1474   1.407       .  A
C1473      H1478   1.083       .  S
C1474      C1475   1.417       .  A
C1475      C1476   1.404       .  A
C1475      F1479   1.358       .  S
C1476      H1480   1.083       .  S
C1481      C1482   1.408       .  A
C1481      C1486   1.403       .  A
C1481      H1491   1.082       .  S
C1482      C1483   1.415       .  A
C1482      C1487   1.502       .  S
C1483      C1484   1.402       .  A
C1483      F1488   1.357       .  S
C1484      C1485   1.401       .  A
C1484      H1489   1.083   1_565  S
C1485      C1486   1.406       .  A
C1486      F1490   1.358       .  S
C1487      C1492   1.415       .  A
C1487      C1496   1.403       .  A
C1492      C1493   1.407       .  A
C1492      F1497   1.357       .  S
C1493      C1494   1.407       .  A
C1493      H1498   1.083       .  S
C1494      C1495   1.416       .  A
C1495      C1496   1.398       .  A
C1495      F1499   1.357       .  S
C1496      H1500   1.083       .  S
C1501      C1502   1.407       .  A
C1501      C1506   1.397       .  A
C1501      H1511   1.083       .  S
C1502      C1503   1.403       .  A
C1502      C1507   1.467       .  S
C1503      C1504   1.384       .  A
C1503      F1508   1.358       .  S
C1504      C1505   1.401       .  A
C1504      H1509   1.085       .  S
C1505      C1506   1.399       .  A
C1506      F1510   1.358       .  S
C1507      C1512   1.406       .  A
C1507      C1516   1.403       .  A
C1512      C1513   1.391       .  A
C1512      F1517   1.358       .  S
C1513      C1514   1.400       .  A
C1513      H1518   1.084       .  S
C1514      C1515   1.401       .  A
C1515      C1516   1.390       .  A
C1515      F1519   1.357       .  S
C1516      H1520   1.083       .  S
C1521      C1522   1.409       .  A
C1521      C1526   1.395       .  A
C1521      H1531   1.083       .  S
C1522      C1523   1.401       .  A
C1522      C1527   1.471       .  S
C1523      C1524   1.394       .  A
C1523      F1528   1.358       .  S
C1524      C1525   1.407       .  A
C1524      H1529   1.082       .  S
C1525      C1526   1.398       .  A
C1526      F1530   1.357       .  S
C1527      C1532   1.404       .  A
C1527      C1536   1.401       .  A
C1532      C1533   1.398       .  A
C1532      F1537   1.358       .  S
C1533      C1534   1.412       .  A
C1533      H1538   1.081       .  S
C1534      C1535   1.415       .  A
C1535      C1536   1.396       .  A
C1535      F1539   1.356       .  S
C1536      H1540   1.083       .  S
C1541      C1542   1.407       .  A
C1541      C1546   1.398       .  A
C1541      H1551   1.083       .  S
C1542      C1543   1.404       .  A
C1542      C1547   1.477       .  S
C1543      C1544   1.391       .  A
C1543      F1548   1.357       .  S
C1544      C1545   1.403       .  A
C1544      H1549   1.084       .  S
C1545      C1546   1.403       .  A
C1546      F1550   1.357       .  S
C1547      C1552   1.401       .  A
C1547      C1556   1.407       .  A
C1552      C1553   1.390       .  A
C1552      F1557   1.358       .  S
C1553      C1554   1.412       .  A
C1553      H1558   1.083       .  S
C1554      C1555   1.405       .  A
C1555      C1556   1.400       .  A
C1555      F1559   1.357       .  S
C1556      H1560   1.083       .  S
C1561      C1562   1.404       .  A
C1561      C1566   1.402       .  A
C1561      H1571   1.083       .  S
C1562      C1563   1.402       .  A
C1562      C1567   1.476       .  S
C1563      C1564   1.394       .  A
C1563      F1568   1.358       .  S
C1564      C1565   1.407       .  A
C1564      H1569   1.083       .  S
C1565      C1566   1.410       .  A
C1566      F1570   1.358       .  S
C1567      C1572   1.406       .  A
C1567      C1576   1.400       .  A
C1572      C1573   1.399       .  A
C1572      F1577   1.357       .  S
C1573      C1574   1.405       .  A
C1573      H1578   1.083       .  S
C1574      C1575   1.411       .  A
C1575      C1576   1.396       .  A
C1575      F1579   1.358       .  S
C1576      H1580   1.083       .  S
C1581      C1582   1.406       .  A
C1581      C1586   1.405       .  A
C1581      H1591   1.083       .  S
C1582      C1583   1.411       .  A
C1582      C1587   1.496       .  S
C1583      C1584   1.404       .  A
C1583      F1588   1.358   1_655  S
C1584      C1585   1.404       .  A
C1584      H1589   1.083   1_655  S
C1585      C1586   1.408       .  A
C1586      F1590   1.357       .  S
C1587      C1592   1.411       .  A
C1587      C1596   1.401       .  A
C1592      C1593   1.409       .  A
C1592      F1597   1.357       .  S
C1593      C1594   1.409       .  A
C1593      H1598   1.083       .  S
C1594      C1595   1.418       .  A
C1595      C1596   1.399       .  A
C1595      F1599   1.357       .  S
C1596      H1600   1.083       .  S
C1601      C1602   1.407       .  A
C1601      C1606   1.406       .  A
C1601      H1611   1.083       .  S
C1602      C1603   1.409       .  A
C1602      C1607   1.496       .  S
C1603      C1604   1.403       .  A
C1603      F1608   1.357   1_655  S
C1604      C1605   1.405       .  A
C1604      H1609   1.083   1_655  S
C1605      C1606   1.408       .  A
C1606      F1610   1.357       .  S
C1607      C1612   1.404       .  A
C1607      C1616   1.409       .  A
C1612      C1613   1.401       .  A
C1612      F1617   1.357       .  S
C1613      C1614   1.411       .  A
C1613      H1618   1.082       .  S
C1614      C1615   1.412       .  A
C1615      C1616   1.409       .  A
C1615      F1619   1.357       .  S
C1616      H1620   1.083       .  S
C1621      C1622   1.402       .  A
C1621      C1626   1.399       .  A
C1621      H1631   1.083   1_655  S
C1622      C1623   1.410       .  A
C1622      C1627   1.488       .  S
C1623      C1624   1.400       .  A
C1623      F1628   1.358       .  S
C1624      C1625   1.406       .  A
C1624      H1629   1.083       .  S
C1625      C1626   1.414       .  A
C1626      F1630   1.357   1_655  S
C1627      C1632   1.410   1_655  A
C1627      C1636   1.405       .  A
C1632      C1633   1.400       .  A
C1632      F1637   1.357       .  S
C1633      C1634   1.401   1_455  A
C1633      H1638   1.083       .  S
C1634      C1635   1.405       .  A
C1635      C1636   1.398       .  A
C1635      F1639   1.358       .  S
C1636      H1640   1.083       .  S
C1641      C1642   1.406       .  A
C1641      C1646   1.405       .  A
C1641      H1651   1.083   1_655  S
C1642      C1643   1.408       .  A
C1642      C1647   1.490       .  S
C1643      C1644   1.397       .  A
C1643      F1648   1.358       .  S
C1644      C1645   1.405       .  A
C1644      H1649   1.083       .  S
C1645      C1646   1.411       .  A
C1646      F1650   1.357   1_655  S
C1647      C1652   1.409       .  A
C1647      C1656   1.407   1_655  A
C1652      C1653   1.398       .  A
C1652      F1657   1.357       .  S
C1653      C1654   1.401       .  A
C1653      H1658   1.083       .  S
C1654      C1655   1.405   1_655  A
C1655      C1656   1.404       .  A
C1655      F1659   1.357       .  S
C1656      H1660   1.083       .  S
C1661      C1662   1.406       .  A
C1661      C1666   1.404       .  A
C1661      H1671   1.083       .  S
C1662      C1663   1.412       .  A
C1662      C1667   1.499       .  S
C1663      C1664   1.406       .  A
C1663      F1668   1.357       .  S
C1664      C1665   1.405       .  A
C1664      H1669   1.083       .  S
C1665      C1666   1.407       .  A
C1666      F1670   1.357       .  S
C1667      C1672   1.406       .  A
C1667      C1676   1.410       .  A
C1672      C1673   1.402       .  A
C1672      F1677   1.357       .  S
C1673      C1674   1.410       .  A
C1673      H1678   1.083       .  S
C1674      C1675   1.410       .  A
C1675      C1676   1.408       .  A
C1675      F1679   1.357       .  S
C1676      H1680   1.083       .  S
C1681      C1682   1.408       .  A
C1681      C1686   1.408       .  A
C1681      H1691   1.083       .  S
C1682      C1683   1.409       .  A
C1682      C1687   1.496       .  S
C1683      C1684   1.401       .  A
C1683      F1688   1.357       .  S
C1684      C1685   1.403       .  A
C1684      H1689   1.083       .  S
C1685      C1686   1.409       .  A
C1686      F1690   1.357       .  S
C1687      C1692   1.412       .  A
C1687      C1696   1.403       .  A
C1692      C1693   1.409       .  A
C1692      F1697   1.357       .  S
C1693      C1694   1.408       .  A
C1693      H1698   1.083       .  S
C1694      C1695   1.410       .  A
C1695      C1696   1.399       .  A
C1695      F1699   1.354       .  S
C1696      H1700   1.083       .  S
C1701      C1702   1.408       .  A
C1701      C1706   1.404       .  A
C1701      H1711   1.083       .  S
C1702      C1703   1.403       .  A
C1702      C1707   1.486       .  S
C1703      C1704   1.397       .  A
C1703      F1708   1.357       .  S
C1704      C1705   1.408       .  A
C1704      H1709   1.083       .  S
C1705      C1706   1.408       .  A
C1706      F1710   1.358       .  S
C1707      C1712   1.406       .  A
C1707      C1716   1.405       .  A
C1712      C1713   1.400       .  A
C1712      F1717   1.358       .  S
C1713      C1714   1.408       .  A
C1713      H1718   1.084       .  S
C1714      C1715   1.407       .  A
C1715      C1716   1.403       .  A
C1715      F1719   1.357       .  S
C1716      H1720   1.083       .  S
C1721      C1722   1.401       .  A
C1721      C1726   1.405       .  A
C1721      H1731   1.083       .  S
C1722      C1723   1.406       .  A
C1722      C1727   1.489       .  S
C1723      C1724   1.405       .  A
C1723      F1728   1.357       .  S
C1724      C1725   1.409       .  A
C1724      H1729   1.083       .  S
C1725      C1726   1.418       .  A
C1726      F1730   1.357       .  S
C1727      C1732   1.406       .  A
C1727      C1736   1.406       .  A
C1732      C1733   1.403       .  A
C1732      F1737   1.357       .  S
C1733      C1734   1.406       .  A
C1733      H1738   1.083       .  S
C1734      C1735   1.407       .  A
C1735      C1736   1.406       .  A
C1735      F1739   1.357       .  S
C1736      H1740   1.083       .  S
C1741      C1742   1.402       .  A
C1741      C1746   1.399       .  A
C1741      H1751   1.083       .  S
C1742      C1743   1.407       .  A
C1742      C1747   1.484       .  S
C1743      C1744   1.405       .  A
C1743      F1748   1.357       .  S
C1744      C1745   1.405       .  A
C1744      H1749   1.083       .  S
C1745      C1746   1.408       .  A
C1746      F1750   1.357       .  S
C1747      C1752   1.403       .  A
C1747      C1756   1.404       .  A
C1752      C1753   1.401       .  A
C1752      F1757   1.357       .  S
C1753      C1754   1.413       .  A
C1753      H1758   1.083       .  S
C1754      C1755   1.410       .  A
C1755      C1756   1.400       .  A
C1755      F1759   1.357       .  S
C1756      H1760   1.083       .  S
C1761      C1762   1.407       .  A
C1761      C1766   1.406       .  A
C1761      H1771   1.083       .  S
C1762      C1763   1.409       .  A
C1762      C1767   1.496       .  S
C1763      C1764   1.404       .  A
C1763      F1768   1.357       .  S
C1764      C1765   1.403       .  A
C1764      H1769   1.083       .  S
C1765      C1766   1.409       .  A
C1766      F1770   1.357       .  S
C1767      C1772   1.411       .  A
C1767      C1776   1.405       .  A
C1772      C1773   1.406       .  A
C1772      F1777   1.357       .  S
C1773      C1774   1.405       .  A
C1773      H1778   1.083       .  S
C1774      C1775   1.409       .  A
C1775      C1776   1.402       .  A
C1775      F1779   1.358       .  S
C1776      H1780   1.083       .  S
C1781      C1782   1.400       .  A
C1781      C1786   1.398       .  A
C1781      H1791   1.083       .  S
C1782      C1783   1.406       .  A
C1782      C1787   1.480       .  S
C1783      C1784   1.400       .  A
C1783      F1788   1.358       .  S
C1784      C1785   1.408       .  A
C1784      H1789   1.083       .  S
C1785      C1786   1.415       .  A
C1786      F1790   1.357       .  S
C1787      C1792   1.406       .  A
C1787      C1796   1.402       .  A
C1792      C1793   1.402       .  A
C1792      F1797   1.358       .  S
C1793      C1794   1.405       .  A
C1793      H1798   1.083       .  S
C1794      C1795   1.405       .  A
C1795      C1796   1.398       .  A
C1795      F1799   1.357       .  S
C1796      H1800   1.083       .  S
C1801      C1802   1.405       .  A
C1801      C1806   1.405       .  A
C1801      H1811   1.083       .  S
C1802      C1803   1.410       .  A
C1802      C1807   1.499       .  S
C1803      C1804   1.405       .  A
C1803      F1808   1.358       .  S
C1804      C1805   1.409       .  A
C1804      H1809   1.083       .  S
C1805      C1806   1.414       .  A
C1806      F1810   1.357       .  S
C1807      C1812   1.411       .  A
C1807      C1816   1.408       .  A
C1812      C1813   1.405       .  A
C1812      F1817   1.357       .  S
C1813      C1814   1.403       .  A
C1813      H1818   1.083       .  S
C1814      C1815   1.408       .  A
C1815      C1816   1.404       .  A
C1815      F1819   1.358       .  S
C1816      H1820   1.083       .  S
C1821      C1822   1.400       .  A
C1821      C1826   1.399       .  A
C1821      H1831   1.083       .  S
C1822      C1823   1.409       .  A
C1822      C1827   1.488       .  S
C1823      C1824   1.402       .  A
C1823      F1828   1.357       .  S
C1824      C1825   1.406       .  A
C1824      H1829   1.083       .  S
C1825      C1826   1.417       .  A
C1826      F1830   1.358       .  S
C1827      C1832   1.408       .  A
C1827      C1836   1.405       .  A
C1832      C1833   1.401       .  A
C1832      F1837   1.357       .  S
C1833      C1834   1.403       .  A
C1833      H1838   1.083       .  S
C1834      C1835   1.408       .  A
C1835      C1836   1.399       .  A
C1835      F1839   1.358       .  S
C1836      H1840   1.083       .  S
C1841      C1842   1.398       .  A
C1841      C1846   1.397       .  A
C1841      H1851   1.084       .  S
C1842      C1843   1.410       .  A
C1842      C1847   1.492       .  S
C1843      C1844   1.410       .  A
C1843      F1848   1.357       .  S
C1844      C1845   1.409       .  A
C1844      H1849   1.083       .  S
C1845      C1846   1.420       .  A
C1846      F1850   1.358       .  S
C1847      C1852   1.407       .  A
C1847      C1856   1.405       .  A
C1852      C1853   1.407       .  A
C1852      F1857   1.357       .  S
C1853      C1854   1.407       .  A
C1853      H1858   1.083       .  S
C1854      C1855   1.408       .  A
C1855      C1856   1.401       .  A
C1855      F1859   1.358       .  S
C1856      H1860   1.083       .  S
C1861      C1862   1.398       .  A
C1861      C1866   1.389       .  A
C1861      H1871   1.084       .  S
C1862      C1863   1.400       .  A
C1862      C1867   1.465       .  S
C1863      C1864   1.398       .  A
C1863      F1868   1.357       .  S
C1864      C1865   1.410       .  A
C1864      H1869   1.083       .  S
C1865      C1866   1.410       .  A
C1866      F1870   1.358       .  S
C1867      C1872   1.407       .  A
C1867      C1876   1.397       .  A
C1872      C1873   1.399       .  A
C1872      F1877   1.358       .  S
C1873      C1874   1.402       .  A
C1873      H1878   1.083       .  S
C1874      C1875   1.406       .  A
C1875      C1876   1.391       .  A
C1875      F1879   1.356       .  S
C1876      H1880   1.084       .  S
C1881      C1882   1.404       .  A
C1881      C1886   1.401       .  A
C1881      H1891   1.083       .  S
C1882      C1883   1.398       .  A
C1882      C1887   1.469       .  S
C1883      C1884   1.390       .  A
C1883      F1888   1.358       .  S
C1884      C1885   1.410       .  A
C1884      H1889   1.083       .  S
C1885      C1886   1.408       .  A
C1886      F1890   1.357       .  S
C1887      C1892   1.401       .  A
C1887      C1896   1.403   1_455  A
C1892      C1893   1.397       .  A
C1892      F1897   1.357       .  S
C1893      C1894   1.406       .  A
C1893      H1898   1.083       .  S
C1894      C1895   1.404   1_455  A
C1895      C1896   1.395       .  A
C1895      F1899   1.358       .  S
C1896      H1900   1.084       .  S
C1901      C1902   1.401       .  A
C1901      C1906   1.390       .  A
C1901      H1911   1.084       .  S
C1902      C1903   1.403       .  A
C1902      C1907   1.474       .  S
C1903      C1904   1.398       .  A
C1903      F1908   1.357       .  S
C1904      C1905   1.409       .  A
C1904      H1909   1.083       .  S
C1905      C1906   1.412       .  A
C1906      F1910   1.357       .  S
C1907      C1912   1.403       .  A
C1907      C1916   1.408       .  A
C1912      C1913   1.394       .  A
C1912      F1917   1.358       .  S
C1913      C1914   1.405       .  A
C1913      H1918   1.082       .  S
C1914      C1915   1.401       .  A
C1915      C1916   1.395       .  A
C1915      F1919   1.357       .  S
C1916      H1920   1.083       .  S
C1921      C1922   1.405   1_455  A
C1921      C1926   1.400       .  A
C1921      H1931   1.083       .  S
C1922      C1923   1.405       .  A
C1922      C1927   1.481       .  S
C1923      C1924   1.398       .  A
C1923      F1928   1.357       .  S
C1924      C1925   1.404       .  A
C1924      H1929   1.084       .  S
C1925      C1926   1.404   1_655  A
C1926      F1930   1.358       .  S
C1927      C1932   1.408       .  A
C1927      C1936   1.398       .  A
C1932      C1933   1.403       .  A
C1932      F1937   1.358       .  S
C1933      C1934   1.408       .  A
C1933      H1938   1.083       .  S
C1934      C1935   1.416       .  A
C1935      C1936   1.397       .  A
C1935      F1939   1.357   1_655  S
C1936      H1940   1.083   1_655  S
C1941      C1942   1.405   1_455  A
C1941      C1946   1.396       .  A
C1941      H1951   1.083       .  S
C1942      C1943   1.408       .  A
C1942      C1947   1.483       .  S
C1943      C1944   1.399       .  A
C1943      F1948   1.357       .  S
C1944      C1945   1.401   1_655  A
C1944      H1949   1.083       .  S
C1945      C1946   1.405       .  A
C1946      F1950   1.358       .  S
C1947      C1952   1.406       .  A
C1947      C1956   1.406   1_655  A
C1952      C1953   1.396       .  A
C1952      F1957   1.357       .  S
C1953      C1954   1.406       .  A
C1953      H1958   1.083       .  S
C1954      C1955   1.406   1_655  A
C1955      C1956   1.397       .  A
C1955      F1959   1.358       .  S
C1956      H1960   1.083       .  S
C1961      C1962   1.400       .  A
C1961      C1966   1.392       .  A
C1961      H1971   1.083       .  S
C1962      C1963   1.404   1_455  A
C1962      C1967   1.464       .  S
C1963      C1964   1.391       .  A
C1963      F1968   1.358       .  S
C1964      C1965   1.404   1_655  A
C1964      H1969   1.083       .  S
C1965      C1966   1.406       .  A
C1966      F1970   1.357       .  S
C1967      C1972   1.399       .  A
C1967      C1976   1.403       .  A
C1972      C1973   1.387       .  A
C1972      F1977   1.358       .  S
C1973      C1974   1.408       .  A
C1973      H1978   1.083       .  S
C1974      C1975   1.407       .  A
C1975      C1976   1.397       .  A
C1975      F1979   1.357       .  S
C1976      H1980   1.083       .  S
