geometry optimzed in LAMMPS
_audit_creation_date              2020-11-30 
_audit_creation_method            'lammps2cif' 
_symmetry_space_group_name_H-M    'P1' 
_symmetry_Int_Tables_number       1 
_symmetry_cell_setting            triclinic 
loop_ 
_symmetry_equiv_pos_as_xyz 
  x,y,z 
_cell_length_a                    44.73430161 
_cell_length_b                    44.93803734159014 
_cell_length_c                    44.813826857462786 
_cell_angle_alpha                 90.04403594247655 
_cell_angle_beta                  89.99423221023943 
_cell_angle_gamma                 89.9250277267386 
loop_ 
_atom_site_label 
_atom_site_type_symbol 
_atom_site_fract_x 
_atom_site_fract_y 
_atom_site_fract_z 
_atom_site_charge 
N1          N  0.00687073  0.25881589  0.25944482    -0.03000
C2          C  0.00118113  0.22952095  0.26403032    -0.00400
C3          C  0.00010402  0.21429592  0.23732620    -0.23300
C4          C  0.00497285  0.23485392  0.21534262    -0.23500
C5          C  0.00921738  0.26198133  0.22932928    -0.00500
H6          H  0.99595708  0.19077358  0.23422596     0.13300
H7          H  0.00462926  0.23062510  0.19156579     0.13300
O8          O  0.00646757  0.41063597  0.44521468    -0.79700
O9          O  0.00311816  0.57889062  0.44406838    -0.81200
O10         O  0.95300817  0.49559236  0.40975087    -0.78200
O11         O  0.05084218  0.49585953  0.41010002    -0.76600
O12         O  0.08771857  0.49397013  0.44525072    -0.78400
O13         O  0.91568349  0.49783498  0.44461659    -0.79300
O14         O  0.00394505  0.54270322  0.40839148    -0.80700
O15         O  0.00476734  0.44630015  0.40922539    -0.81000
Eu16       Eu  0.00203744  0.49471319  0.43436120     2.39200
O17         O  0.03267233  0.52476731  0.46416111    -0.88500
O18         O  0.97130225  0.46487617  0.46451485    -0.92100
C19         C  0.00689297  0.41894845  0.41748974     1.02600
C20         C  0.00418797  0.57017592  0.41664234     1.02400
C21         C  0.92520820  0.49711400  0.41730191     1.02400
C22         C  0.07855355  0.49497075  0.41794946     1.00200
H23         H  0.95890271  0.53803449  0.45112815     0.30000
O24         O  0.97104373  0.52541858  0.46364357    -1.00900
H25         H  0.04600337  0.45271163  0.45262986     0.30000
O26         O  0.03336164  0.46527931  0.46470862    -1.03400
O27         O  0.00256919  0.58105585  0.54159549    -0.80600
O28         O  0.00472424  0.41164334  0.54463150    -0.80200
O29         O  0.91654637  0.54570261  0.49780039    -0.78600
O30         O  0.08758662  0.54544150  0.49048279    -0.81900
O31         O  0.08801533  0.44633281  0.49980273    -0.79800
O32         O  0.91665019  0.44572275  0.49290839    -0.78400
O33         O  0.95416338  0.49582572  0.57975146    -0.80000
O34         O  0.05062869  0.50000509  0.57970673    -0.81900
O35         O  0.91712924  0.49451029  0.54457624    -0.78600
O36         O  0.08778404  0.49939172  0.54454723    -0.81300
O37         O  0.95379694  0.58027971  0.49502640    -0.77000
O38         O  0.95407924  0.41107697  0.49436541    -0.77100
O39         O  0.05104965  0.41114043  0.49962027    -0.76700
O40         O  0.05022636  0.58027038  0.49006001    -0.80200
O41         O  0.00103908  0.54571940  0.57814894    -0.79600
O42         O  0.00522672  0.44817065  0.57992228    -0.78000
Eu43       Eu  0.00206341  0.55527834  0.49337811     2.39800
Eu44       Eu  0.00268168  0.43554015  0.49484781     2.39600
Eu45       Eu  0.94031775  0.49563597  0.49435147     2.38400
Eu46       Eu  0.06395882  0.49579358  0.49479722     2.39900
Eu47       Eu  0.00236940  0.49653904  0.55437602     2.39800
O48         O  0.03294439  0.46610055  0.52480907    -0.92400
O49         O  0.97145218  0.52590165  0.52398146    -0.91300
C50         C  0.00187120  0.57297861  0.56917440     1.02800
C51         C  0.00601625  0.42056119  0.57208960     1.01500
C52         C  0.92615620  0.57292730  0.49768468     1.00900
C53         C  0.07790413  0.57254541  0.48871981     1.02900
C54         C  0.07861222  0.41916597  0.50151621     1.01800
C55         C  0.92633216  0.41852513  0.49288306     1.00700
C56         C  0.92650712  0.49458180  0.57192260     1.00700
C57         C  0.07831657  0.50066571  0.57180366     1.03400
H58         H  0.95977443  0.45330369  0.53730989     0.30700
O59         O  0.97175271  0.46586982  0.52463634    -1.04500
H60         H  0.04520269  0.53958739  0.53623400     0.32800
O61         O  0.03307715  0.52651187  0.52421328    -1.07100
N62         N  0.99654245  0.72867183  0.73020582    -0.03000
C63         C  0.99876932  0.72303535  0.75979344    -0.00400
C64         C  0.99513844  0.74876857  0.77622644    -0.23300
C65         C  0.99077437  0.77128840  0.75607076    -0.23500
C66         C  0.99200912  0.75847626  0.72807055    -0.00500
H67         H  0.99576944  0.75087819  0.80027594     0.13300
H68         H  0.98778557  0.79464146  0.76119594     0.13300
N69         N  0.01258683  0.25844192  0.72826290    -0.03000
C70         C  0.01917660  0.22950435  0.72260698    -0.00400
C71         C  0.02218997  0.21376265  0.74889707    -0.23300
C72         C  0.01769677  0.23366588  0.77162424    -0.23500
C73         C  0.01158637  0.26081802  0.75846370    -0.00500
H74         H  0.02641830  0.19016032  0.75124602     0.13300
H75         H  0.01864566  0.22884412  0.79526419     0.13300
N76         N  0.98298468  0.72747541  0.25989214    -0.03000
C77         C  0.97846012  0.72421458  0.23009665    -0.00400
C78         C  0.97904022  0.75173207  0.21626568    -0.23300
C79         C  0.98382049  0.77254752  0.23821164    -0.23500
C80         C  0.98631822  0.75707867  0.26469139    -0.00500
H81         H  0.97686744  0.75613085  0.19262539     0.13300
H82         H  0.98558865  0.79637015  0.23518595     0.13300
O83         O  0.99647445  0.04023698  0.40764986    -0.79700
O84         O  0.99861231  0.04578208  0.57836183    -0.81200
O85         O  0.94955440  0.07791240  0.49101454    -0.78200
O86         O  0.04774274  0.07726878  0.49653085    -0.76600
O87         O  0.08425942  0.04194575  0.49783391    -0.78400
O88         O  0.91337923  0.04214487  0.49062618    -0.79300
O89         O  0.99778061  0.07930846  0.53998512    -0.80700
O90         O  0.99824820  0.07607238  0.44368413    -0.81000
Eu91       Eu  0.99863539  0.05288471  0.49273644     2.39200
O92         O  0.02826401  0.02392015  0.52465246    -0.88500
O93         O  0.96874125  0.02246011  0.46243784    -0.92100
C94         C  0.99655821  0.06776095  0.41621217     1.02600
C95         C  0.99837448  0.07261708  0.56790145     1.02400
C96         C  0.92192709  0.06961506  0.49050343     1.02400
C97         C  0.07541614  0.06935475  0.49817507     1.00200
H98         H  0.95556051  0.03740667  0.53570225     0.30000
O99         O  0.96826718  0.02433219  0.52423221    -1.00900
H100        H  0.04226062  0.03471997  0.45107198     0.30000
O101        O  0.02962112  0.02240744  0.46337573    -1.03400
O102        O  0.99572839  0.94602664  0.58163394    -0.80600
O103        O  0.99934746  0.94109056  0.41058388    -0.80200
O104        O  0.91390805  0.99546019  0.54188224    -0.78600
O105        O  0.08360884  0.99509254  0.54410046    -0.81900
O106        O  0.08454423  0.99221437  0.44794903    -0.79800
O107        O  0.91448150  0.98848456  0.44596714    -0.78400
O108        O  0.94952328  0.90907167  0.49703356    -0.80000
O109        O  0.04819505  0.90769339  0.49757309    -0.81900
O110        O  0.91344454  0.94514469  0.49740313    -0.78600
O111        O  0.08379422  0.94404515  0.49694186    -0.81300
O112        O  0.94803842  0.99786955  0.57962522    -0.77000
O113        O  0.94985926  0.98695077  0.40915176    -0.77100
O114        O  0.04971114  0.99032592  0.41052648    -0.76700
O115        O  0.04802238  0.99700772  0.58069437    -0.80200
O116        O  0.99679454  0.91003622  0.54548259    -0.79600
O117        O  0.99895682  0.90712766  0.44861099    -0.78000
Eu118      Eu  0.99814132  0.99513886  0.55642323     2.39800
Eu119      Eu  0.99945575  0.99128321  0.43328073     2.39600
Eu120      Eu  0.93889493  0.99340256  0.49401312     2.38400
Eu121      Eu  0.05901995  0.99310458  0.49574767     2.39900
Eu122      Eu  0.99915975  0.93313473  0.49654015     2.39800
O123        O  0.02954742  0.96220482  0.46533999    -0.92400
O124        O  0.96863368  0.96423698  0.52580653    -0.91300
C125        C  0.99514196  0.91855756  0.57283851     1.02800
C126        C  0.99882739  0.91414866  0.42071641     1.01500
C127        C  0.92092107  0.99776547  0.56954302     1.00900
C128        C  0.07551261  0.99681997  0.57161636     1.02900
C129        C  0.07690080  0.99106230  0.42028698     1.01800
C130        C  0.92251342  0.98606498  0.41851127     1.00700
C131        C  0.92195567  0.91771952  0.49788613     1.00700
C132        C  0.07570511  0.91644923  0.49751878     1.03400
H133        H  0.95697239  0.94907362  0.45328526     0.30700
O134        O  0.96934452  0.96221464  0.46497351    -1.04500
H135        H  0.04120780  0.95169661  0.53991076     0.32800
O136        O  0.02886329  0.96381906  0.52710260    -1.07100
N137        N  0.23249311  0.22890672  0.52159402    -0.03000
C138        C  0.22947975  0.25810529  0.52895067    -0.00400
C139        C  0.25719093  0.27168320  0.53032032    -0.23300
C140        C  0.27797874  0.25032124  0.52352777    -0.23500
C141        C  0.26227431  0.22448725  0.51813812    -0.00500
H142        H  0.26168904  0.29500278  0.53434447     0.13300
H143        H  0.30194152  0.25334474  0.52218839     0.13300
N144        N  0.76517731  0.23098498  0.47730383    -0.03000
C145        C  0.76854271  0.26096923  0.47402162    -0.00400
C146        C  0.74104104  0.27463421  0.47076009    -0.23300
C147        C  0.71991092  0.25275170  0.47272315    -0.23500
C148        C  0.73514714  0.22635577  0.47680332    -0.00500
H149        H  0.73679539  0.29822823  0.46833510     0.13300
H150        H  0.69591628  0.25577202  0.47190371     0.13300
N151        N  0.76314743  0.75926736  0.50508435    -0.03000
C152        C  0.73308110  0.76345659  0.50704879    -0.00400
C153        C  0.71885485  0.73695440  0.51358433    -0.23300
C154        C  0.74069632  0.71571479  0.51613723    -0.23500
C155        C  0.76747114  0.72993668  0.51089733    -0.00500
H156        H  0.69505036  0.73349904  0.51613732     0.13300
H157        H  0.73741080  0.69228379  0.52060907     0.13300
N158        N  0.23769524  0.76051928  0.48636165    -0.03000
C159        C  0.23327149  0.73078359  0.48324464    -0.00400
C160        C  0.26016889  0.71563299  0.48396185    -0.23300
C161        C  0.28199210  0.73653344  0.48821023    -0.23500
C162        C  0.26765058  0.76370186  0.48965419    -0.00500
H163        H  0.26342525  0.69181768  0.48228649     0.13300
H164        H  0.30574695  0.73241582  0.49028135     0.13300
N165        N  0.73393271  0.97474733  0.26276821    -0.03000
C166        C  0.76371947  0.96909815  0.26496575    -0.00400
C167        C  0.77732017  0.97241021  0.23742486    -0.23300
C168        C  0.75536961  0.98027294  0.21762607    -0.23500
C169        C  0.72914731  0.98189096  0.23374180    -0.00500
H170        H  0.80091462  0.97046005  0.23245753     0.13300
H171        H  0.75819146  0.98445976  0.19401285     0.13300
O172        O  0.44923985  0.08289307  0.49207126    -0.79700
O173        O  0.44775207  0.91360025  0.50267993    -0.81200
O174        O  0.41253319  0.99582879  0.44844355    -0.78200
O175        O  0.41318730  0.99983410  0.54547752    -0.76600
O176        O  0.44897944  0.99909348  0.58180851    -0.78400
O177        O  0.44797230  0.99449095  0.41185349    -0.79300
O178        O  0.41253477  0.95052100  0.50089988    -0.80700
O179        O  0.41398592  0.04609875  0.49377101    -0.81000
Eu180      Eu  0.43828628  0.99775065  0.49676134     2.39200
O181        O  0.46803399  0.96791336  0.52786653    -0.88500
O182        O  0.46825549  0.02670572  0.46517975    -0.92100
C183        C  0.42185913  0.07356312  0.49211654     1.02600
C184        C  0.42046733  0.92311615  0.50300251     1.02400
C185        C  0.42047713  0.99468281  0.42081507     1.02400
C186        C  0.42147185  0.99979426  0.57303621     1.00200
H187        H  0.45445853  0.95259814  0.45596699     0.30000
O188        O  0.46738363  0.96517869  0.46771048    -1.00900
H189        H  0.45569194  0.04177034  0.53735174     0.30000
O190        O  0.46847779  0.02908929  0.52552419    -1.03400
O191        O  0.54759657  0.91129681  0.49852254    -0.80600
O192        O  0.54934629  0.08151883  0.49381216    -0.80200
O193        O  0.49629818  0.94506299  0.41333933    -0.78600
O194        O  0.49867317  0.95165440  0.58333083    -0.81900
O195        O  0.49611704  0.04875935  0.57914461    -0.79800
O196        O  0.49798586  0.04103641  0.40933417    -0.78400
O197        O  0.58212624  0.99241330  0.44769663    -0.80000
O198        O  0.58306568  0.99822321  0.54602176    -0.81900
O199        O  0.54655345  0.99087946  0.41120366    -0.78600
O200        O  0.54700283  0.00148297  0.58198178    -0.81300
O201        O  0.49652069  0.90957053  0.44984995    -0.77000
O202        O  0.49904548  0.07929389  0.44291615    -0.77100
O203        O  0.49616546  0.08427064  0.54263639    -0.76700
O204        O  0.49948301  0.91362827  0.54941806    -0.80200
O205        O  0.58287385  0.94809741  0.49765225    -0.79600
O206        O  0.58387697  0.04391748  0.49496395    -0.78000
Eu207      Eu  0.49792165  0.93568234  0.49889745     2.39800
Eu208      Eu  0.49888642  0.05830769  0.49399336     2.39600
Eu209      Eu  0.49762463  0.99422430  0.43635003     2.38400
Eu210      Eu  0.49813070  0.99928847  0.55688206     2.39900
Eu211      Eu  0.55809965  0.99636043  0.49684099     2.39800
O212        O  0.52861056  0.02861364  0.52579361    -0.92400
O213        O  0.52792338  0.96507519  0.46764994    -0.91300
C214        C  0.57496680  0.92057559  0.49774799     1.02800
C215        C  0.57656600  0.07160293  0.49439177     1.01500
C216        C  0.49604353  0.91777064  0.42212614     1.00900
C217        C  0.49982884  0.92383162  0.57644128     1.02900
C218        C  0.49517052  0.07602260  0.57026591     1.01800
C219        C  0.49872248  0.06884836  0.41596825     1.00700
C220        C  0.57402261  0.99079784  0.42011933     1.00700
C221        C  0.57456499  0.00021511  0.57351780     1.03400
H222        H  0.54128240  0.03714635  0.45199191     0.30700
O223        O  0.52849726  0.02576794  0.46503339    -1.04500
H224        H  0.54087263  0.95552139  0.54102484     0.32800
O225        O  0.52818096  0.96723793  0.52815726    -1.07100
N226        N  0.26320017  0.00306258  0.73275439    -0.03000
C227        C  0.26853772  0.00753731  0.76219302    -0.00400
C228        C  0.24202142  0.00962015  0.77783830    -0.23300
C229        C  0.21945421  0.00657008  0.75731710    -0.23500
C230        C  0.23298415  0.00254946  0.72987364    -0.00500
H231        H  0.23943033  0.01258051  0.80166757     0.13300
H232        H  0.19570118  0.00736268  0.76184826     0.13300
N233        N  0.73403587  0.00752368  0.73192833    -0.03000
C234        C  0.76395967  0.00976428  0.72710631    -0.00400
C235        C  0.77929899  0.01074028  0.75378008    -0.23300
C236        C  0.75832867  0.00850825  0.77591985    -0.23500
C237        C  0.73079432  0.00642753  0.76206832    -0.00500
H238        H  0.80328072  0.01193258  0.75673188     0.13300
H239        H  0.76271173  0.00757757  0.79965205     0.13300
N240        N  0.26248020  0.99554926  0.26020401    -0.03000
C241        C  0.26756303  0.99160687  0.23067365    -0.00400
C242        C  0.24137733  0.99361764  0.21453050    -0.23300
C243        C  0.21909708  0.99883506  0.23476246    -0.23500
C244        C  0.23259684  0.00002119  0.26247192    -0.00500
H245        H  0.23881442  0.99122427  0.19063123     0.13300
H246        H  0.19545609  0.00059566  0.22993580     0.13300
O247        O  0.58394945  0.99488616  0.05052432    -0.79700
O248        O  0.41431623  0.98601528  0.04699070    -0.81200
O249        O  0.49446678  0.04260034  0.08307885    -0.78200
O250        O  0.50151096  0.94494091  0.08396001    -0.76600
O251        O  0.50117757  0.90853114  0.04832926    -0.78400
O252        O  0.49558565  0.07807537  0.04652274    -0.79300
O253        O  0.45072797  0.98871941  0.08253818    -0.80700
O254        O  0.54594466  0.99548993  0.08476253    -0.81000
Eu255      Eu  0.49857381  0.99353618  0.05838751     2.39200
O256        O  0.46934344  0.96205215  0.02811318    -0.88500
O257        O  0.52931870  0.02469752  0.02954727    -0.92100
C258        C  0.57376179  0.99509671  0.07753122     1.02600
C259        C  0.42345404  0.98546640  0.07447357     1.02400
C260        C  0.49431318  0.06992966  0.07409608     1.02400
C261        C  0.50205428  0.91736456  0.07580663     1.00200
H262        H  0.45429626  0.03421125  0.03984767     0.30000
O263        O  0.46737501  0.02227818  0.02760580    -1.00900
H264        H  0.54250471  0.95216385  0.04220114     0.30000
O265        O  0.53023762  0.96405736  0.02914723    -1.03400
O266        O  0.41578624  0.99220757  0.94635564    -0.80600
O267        O  0.58696822  0.99315598  0.95152947    -0.80200
O268        O  0.44896514  0.07579934  0.99673429    -0.78600
O269        O  0.45281847  0.90685156  0.99559059    -0.81900
O270        O  0.55039648  0.90964376  0.00216033    -0.79800
O271        O  0.54583076  0.07953087  0.99767585    -0.78400
O272        O  0.49983099  0.04151069  0.91281245    -0.80000
O273        O  0.50389322  0.94353349  0.91357033    -0.81900
O274        O  0.49648684  0.07738593  0.94877350    -0.78600
O275        O  0.50665044  0.90771292  0.94971458    -0.81300
O276        O  0.41277315  0.03977615  0.99643686    -0.77000
O277        O  0.58364591  0.04538274  0.99894436    -0.77100
O278        O  0.58644544  0.94576689  0.00291064    -0.76700
O279        O  0.41510574  0.94120333  0.99374033    -0.80200
O280        O  0.45369326  0.99274346  0.91208854    -0.79600
O281        O  0.55096489  0.99114454  0.91517605    -0.78000
Eu282      Eu  0.43828563  0.99088065  0.99696367     2.39800
Eu283      Eu  0.56128072  0.99484641  0.00018831     2.39600
Eu284      Eu  0.49819327  0.05282290  0.99793884     2.38400
Eu285      Eu  0.50122793  0.93263792  0.99868588     2.39900
Eu286      Eu  0.50150632  0.99255992  0.93817152     2.39800
O287        O  0.53189479  0.96369363  0.96961825    -0.92400
O288        O  0.46929437  0.02150710  0.96762165    -0.91300
C289        C  0.42579815  0.99280587  0.91924790     1.02800
C290        C  0.57835026  0.99145420  0.92405775     1.01500
C291        C  0.42151988  0.06720988  0.99643980     1.00900
C292        C  0.42498747  0.91415212  0.99328765     1.02900
C293        C  0.57779266  0.91830489  0.00368585     1.01800
C294        C  0.57379471  0.07245659  0.99773992     1.00700
C295        C  0.49737882  0.06896543  0.92123076     1.00700
C296        C  0.50613508  0.91618379  0.92215476     1.03400
H297        H  0.54273595  0.03638323  0.95613965     0.30700
O298        O  0.53060486  0.02376551  0.96858880    -1.04500
H299        H  0.45928428  0.94895229  0.95426778     0.32800
O300        O  0.47071059  0.96164998  0.96732077    -1.07100
N301        N  0.47622450  0.23042028  0.23127348    -0.03000
C302        C  0.47625377  0.22519835  0.26106300    -0.00400
C303        C  0.47352400  0.25141712  0.27690991    -0.23300
C304        C  0.47191203  0.27379730  0.25624758    -0.23500
C305        C  0.47386156  0.26041273  0.22856913    -0.00500
H306        H  0.47396642  0.25401460  0.30092130     0.13300
H307        H  0.47108040  0.29742826  0.26087388     0.13300
N308        N  0.50607675  0.75803231  0.23427713    -0.03000
C309        C  0.51291877  0.72907108  0.22950643    -0.00400
C310        C  0.51261981  0.71335872  0.25595672    -0.23300
C311        C  0.50563369  0.73343156  0.27796605    -0.23500
C312        C  0.50158473  0.76064212  0.26411748    -0.00500
H313        H  0.51647193  0.68974903  0.25880163     0.13300
H314        H  0.50397894  0.72877327  0.30159960     0.13300
N315        N  0.52050026  0.75989786  0.76124293    -0.03000
C316        C  0.52191906  0.72998316  0.76545285    -0.00400
C317        C  0.52394797  0.71526975  0.73848634    -0.23300
C318        C  0.52357732  0.73668426  0.71673899    -0.23500
C319        C  0.52103190  0.76378149  0.73111988    -0.00500
H320        H  0.52459723  0.69143774  0.73502967     0.13300
H321        H  0.52408485  0.73289299  0.69288982     0.13300
N322        N  0.49968416  0.22966147  0.76328162    -0.03000
C323        C  0.49583117  0.22648498  0.73342329    -0.00400
C324        C  0.49879298  0.25340932  0.71895935    -0.23300
C325        C  0.50438674  0.27419637  0.74055749    -0.23500
C326        C  0.50465155  0.25920685  0.76744638    -0.00500
H327        H  0.49748846  0.25734069  0.69516962     0.13300
H328        H  0.50744938  0.29783911  0.73714752     0.13300
O329        O  0.99839133  0.40760647  0.04291377    -0.79700
O330        O  0.99511274  0.57850376  0.04387651    -0.81200
O331        O  0.04692233  0.49618816  0.07999031    -0.78200
O332        O  0.94905058  0.49388551  0.07754202    -0.76600
O333        O  0.91357540  0.49396251  0.04087694    -0.78400
O334        O  0.08360202  0.49551401  0.04463420    -0.79300
O335        O  0.99360688  0.54135570  0.07874351    -0.80700
O336        O  0.99827575  0.44467766  0.07801076    -0.81000
Eu337      Eu  0.99838070  0.49324139  0.05376367     2.39200
O338        O  0.96838810  0.52309715  0.02293317    -0.88500
O339        O  0.02925411  0.46214643  0.02476898    -0.92100
C340        C  0.99821453  0.41707330  0.07018784     1.02600
C341        C  0.99292831  0.56898477  0.07106708     1.02400
C342        C  0.07467271  0.49707868  0.07202982     1.02400
C343        C  0.92168789  0.49429087  0.06854435     1.00200
H344        H  0.04080880  0.53694460  0.03730193     0.30000
O345        O  0.02876390  0.52437170  0.02466474    -1.00900
H346        H  0.95597399  0.45040286  0.03547749     0.30000
O347        O  0.96869220  0.46258238  0.02314808    -1.03400
O348        O  0.00030816  0.57872285  0.94474319    -0.80600
O349        O  0.99893618  0.40896895  0.94310840    -0.80200
O350        O  0.08403940  0.54152677  0.99336511    -0.78600
O351        O  0.91365612  0.54036801  0.99242514    -0.81900
O352        O  0.91373968  0.44478156  0.99294125    -0.79800
O353        O  0.08402490  0.44457425  0.99330515    -0.78400
O354        O  0.04984276  0.49289631  0.90940145    -0.80000
O355        O  0.95178458  0.49207289  0.90744453    -0.81900
O356        O  0.08476249  0.49405374  0.94655151    -0.78600
O357        O  0.91471981  0.49063205  0.94245082    -0.81300
O358        O  0.04861154  0.57842208  0.99192009    -0.77000
O359        O  0.04899553  0.40749672  0.99140525    -0.77100
O360        O  0.94951997  0.40828797  0.99211656    -0.76700
O361        O  0.94813461  0.57782016  0.99263393    -0.80200
O362        O  0.00263613  0.54189812  0.90944218    -0.79600
O363        O  0.00056588  0.44570224  0.90790956    -0.78000
Eu364      Eu  0.99850925  0.55462577  0.99394861     2.39800
Eu365      Eu  0.99936776  0.43190848  0.99340453     2.39600
Eu366      Eu  0.05932258  0.49327197  0.99524246     2.38400
Eu367      Eu  0.93894651  0.49265351  0.99214346     2.39900
Eu368      Eu  0.00026464  0.49340869  0.93353336     2.39800
O369        O  0.96968889  0.46238054  0.96257240    -0.92400
O370        O  0.02935203  0.52358111  0.96481957    -0.91300
C371        C  0.00220229  0.56938838  0.91755265     1.02800
C372        C  0.99992282  0.41816599  0.91576901     1.01500
C373        C  0.07600291  0.56901893  0.99204569     1.00900
C374        C  0.92091468  0.56799930  0.99224281     1.02900
C375        C  0.92207803  0.41738046  0.99256160     1.01800
C376        C  0.07628726  0.41702287  0.99101296     1.00700
C377        C  0.07715352  0.49355377  0.91877290     1.00700
C378        C  0.92397812  0.49073142  0.91510664     1.03400
H379        H  0.04259559  0.45096832  0.95165458     0.30700
O380        O  0.02989548  0.46301776  0.96419214    -1.04500
H381        H  0.95662320  0.53603541  0.94978266     0.32800
O382        O  0.96899637  0.52399085  0.96263151    -1.07100
N383        N  0.76831037  0.52977136  0.22816605    -0.03000
C384        C  0.77480255  0.53562653  0.25706214    -0.00400
C385        C  0.74975863  0.54619656  0.27169517    -0.23300
C386        C  0.72709784  0.54704919  0.25092894    -0.23500
C387        C  0.73918747  0.53694275  0.22441649    -0.00500
H388        H  0.74782830  0.55124906  0.29523178     0.13300
H389        H  0.70398923  0.55288763  0.25506668     0.13300
N390        N  0.23613807  0.49970680  0.22876282    -0.03000
C391        C  0.26544433  0.50448169  0.22300878    -0.00400
C392        C  0.28243233  0.50089084  0.24846395    -0.23300
C393        C  0.26292930  0.49404511  0.27095348    -0.23500
C394        C  0.23473519  0.49327321  0.25835172    -0.00500
H395        H  0.30649061  0.50263505  0.25031396     0.13300
H396        H  0.26862601  0.49059630  0.29416383     0.13300
N397        N  0.23699981  0.49331916  0.76011839    -0.03000
C398        C  0.26691234  0.48918777  0.76331652    -0.00400
C399        C  0.28142576  0.49307976  0.73643252    -0.23300
C400        C  0.25992273  0.50049181  0.71596663    -0.23500
C401        C  0.23298794  0.50096229  0.73108079    -0.00500
H402        H  0.30526441  0.49188327  0.73246663     0.13300
H403        H  0.26350847  0.50507205  0.69253235     0.13300
N404        N  0.76352470  0.50589874  0.75729184    -0.03000
C405        C  0.76596530  0.50274220  0.72722381    -0.00400
C406        C  0.73837193  0.50416236  0.71360692    -0.23300
C407        C  0.71790485  0.50825539  0.73590167    -0.23500
C408        C  0.73372209  0.50936534  0.76240400    -0.00500
H409        H  0.73368693  0.50217468  0.68999471     0.13300
H410        H  0.69387915  0.50922154  0.73320280     0.13300
N411        N  0.26638187  0.25925771  0.99744708    -0.03000
C412        C  0.23716030  0.26508905  0.99159609    -0.00400
C413        C  0.22074040  0.23920289  0.98986731    -0.23300
C414        C  0.24034583  0.21635372  0.99460488    -0.23500
C415        C  0.26808949  0.22905606  0.99926599    -0.00500
H416        H  0.19703774  0.23723466  0.98544443     0.13300
H417        H  0.23510366  0.19285150  0.99405333     0.13300
O418        O  0.49858287  0.44709969  0.08387656    -0.79700
O419        O  0.50600778  0.44560499  0.91239137    -0.81200
O420        O  0.45494932  0.40902165  0.99678571    -0.78200
O421        O  0.55204531  0.41018097  0.99860622    -0.76600
O422        O  0.58755014  0.44658511  0.99747328    -0.78400
O423        O  0.41822282  0.44432185  0.99758524    -0.79300
O424        O  0.50569512  0.41093163  0.94978863    -0.80700
O425        O  0.50070867  0.41195546  0.04709151    -0.81000
Eu426      Eu  0.50316232  0.43540684  0.99812479     2.39200
O427        O  0.53296515  0.46557387  0.96744234    -0.88500
O428        O  0.47201617  0.46523401  0.02782373    -0.92100
C429        C  0.49832883  0.41982435  0.07460079     1.02600
C430        C  0.50686173  0.41854348  0.92215133     1.02400
C431        C  0.42720355  0.41691181  0.99715000     1.02400
C432        C  0.57948138  0.41896927  0.99731659     1.00200
H433        H  0.46115727  0.45148062  0.95417437     0.30000
O434        O  0.47315863  0.46446397  0.96641772    -1.00900
H435        H  0.54493791  0.45327552  0.04172999     0.30000
O436        O  0.53254198  0.46563708  0.02919054    -1.03400
O437        O  0.50237134  0.54482746  0.91158007    -0.80600
O438        O  0.50386025  0.54638345  0.08146387    -0.80200
O439        O  0.41773715  0.49211597  0.94779038    -0.78600
O440        O  0.58786421  0.49597130  0.95025478    -0.81900
O441        O  0.58654830  0.49643312  0.04694231    -0.79800
O442        O  0.41635925  0.49516802  0.04351044    -0.78400
O443        O  0.45165664  0.57893918  0.99590041    -0.80000
O444        O  0.55020141  0.58049214  0.99743181    -0.81900
O445        O  0.41596237  0.54268239  0.99471796    -0.78600
O446        O  0.58675754  0.54492813  0.99987747    -0.81300
O447        O  0.45328205  0.49199684  0.91118228    -0.77000
O448        O  0.45058762  0.49724303  0.08147251    -0.77100
O449        O  0.55084738  0.49623283  0.08347686    -0.76700
O450        O  0.55325079  0.49604872  0.91274827    -0.80200
O451        O  0.50145073  0.58003396  0.94850941    -0.79600
O452        O  0.50355812  0.58124981  0.04425768    -0.78000
Eu453      Eu  0.50298365  0.49518094  0.93579947     2.39800
Eu454      Eu  0.50121057  0.49605287  0.05887217     2.39600
Eu455      Eu  0.44207939  0.49424629  0.99616908     2.38400
Eu456      Eu  0.56242760  0.49569865  0.99830950     2.39900
Eu457      Eu  0.50134185  0.55521812  0.99668219     2.39800
O458        O  0.53127619  0.52567858  0.02782327    -0.92400
O459        O  0.47168683  0.52500824  0.96570985    -0.91300
C460        C  0.50175354  0.57209902  0.92092970     1.02800
C461        C  0.50467923  0.57354962  0.07189725     1.01500
C462        C  0.42580632  0.49076996  0.92030172     1.00900
C463        C  0.58047755  0.49602819  0.92247009     1.02900
C464        C  0.57836283  0.49638834  0.07446054     1.01800
C465        C  0.42352884  0.49668612  0.07122753     1.00700
C466        C  0.42416320  0.57025792  0.99519150     1.00700
C467        C  0.57782237  0.57227822  0.99922307     1.03400
H468        H  0.45825550  0.53806053  0.03910016     0.30700
O469        O  0.47099859  0.52538622  0.02722758    -1.04500
H470        H  0.54519743  0.53812584  0.95487938     0.32800
O471        O  0.53261508  0.52551487  0.96690911    -1.07100
N472        N  0.73600960  0.73107045  0.00823219    -0.03000
C473        C  0.73309069  0.76026500  0.01494142    -0.00400
C474        C  0.76072440  0.77361096  0.01793054    -0.23300
C475        C  0.78157886  0.75168398  0.01332425    -0.23500
C476        C  0.76583738  0.72585109  0.00773044    -0.00500
H477        H  0.76516531  0.79681453  0.02262882     0.13300
H478        H  0.80562447  0.75417303  0.01422241     0.13300
N479        N  0.26581728  0.72649875  0.96573187    -0.03000
C480        C  0.26829550  0.75616429  0.96016152    -0.00400
C481        C  0.24126082  0.76749649  0.95049568    -0.23300
C482        C  0.22130711  0.74431146  0.95071065    -0.23500
C483        C  0.23683485  0.71946441  0.96017168    -0.00500
H484        H  0.23626362  0.79047666  0.94525878     0.13300
H485        H  0.19762477  0.74570902  0.94596846     0.13300
N486        N  0.73440318  0.25809842  0.96935344    -0.03000
C487        C  0.76426253  0.26237691  0.96603054    -0.00400
C488        C  0.77795539  0.23631700  0.95699148    -0.23300
C489        C  0.75579318  0.21537308  0.95421894    -0.23500
C490        C  0.72930620  0.22931717  0.96176645    -0.00500
H491        H  0.80163765  0.23277198  0.95353072     0.13300
H492        H  0.75880688  0.19214386  0.94856559     0.13300
C493        C  0.71196803  0.28050666  0.97448349    -0.11500
C494        C  0.70706893  0.29269011  0.00296590     0.04000
C495        C  0.68549752  0.31504573  0.00689541    -0.12000
C496        C  0.66828808  0.32528837  0.98272172     0.18800
C497        C  0.67292288  0.31257618  0.95428103    -0.09100
C498        C  0.69444973  0.29025954  0.95047935    -0.02000
H499        H  0.68203915  0.32441275  0.02890745     0.05400
C500        C  0.64581829  0.34928046  0.98750076     0.20800
H501        H  0.69784260  0.28057474  0.92859781     0.10500
C502        C  0.64996806  0.37697173  0.97374413    -0.15400
C503        C  0.62892264  0.39987991  0.97688353     0.03500
C504        C  0.60316552  0.39566093  0.99473825    -0.10700
C505        C  0.59916914  0.36783909  0.00869529    -0.00800
C506        C  0.62016344  0.34480693  0.00517361    -0.05900
H507        H  0.66947017  0.38056862  0.95987274     0.06500
H508        H  0.57944091  0.36383139  0.02211740     0.09900
Br509      Br  0.64994369  0.32424285  0.92006565    -0.05600
Br510      Br  0.72824988  0.27829091  0.03714719    -0.02600
Br511      Br  0.63552303  0.43515879  0.95366891     0.00300
Br512      Br  0.61219465  0.30703884  0.02352528    -0.04100
C513        C  0.28954579  0.70574024  0.97224148    -0.11500
C514        C  0.31213993  0.69982053  0.95109063     0.04000
C515        C  0.33382356  0.67809160  0.95691414    -0.12000
C516        C  0.33358645  0.66208852  0.98375272     0.18800
C517        C  0.31143509  0.66837210  0.00518107    -0.09100
C518        C  0.28933527  0.68969873  0.99910892    -0.02000
H519        H  0.35065563  0.67325605  0.94020471     0.05400
C520        C  0.35584594  0.63804101  0.98823811     0.20800
H521        H  0.27193717  0.69387331  0.01538160     0.10500
C522        C  0.38200304  0.64377281  0.00440978    -0.15400
C523        C  0.40402647  0.62179856  0.00785095     0.03500
C524        C  0.40041446  0.59355142  0.99422574    -0.10700
C525        C  0.37362666  0.58770788  0.97880166    -0.00800
C526        C  0.35144162  0.60958557  0.97591974    -0.05900
H527        H  0.38522060  0.66543401  0.01453499     0.06500
H528        H  0.37005725  0.56617937  0.96851931     0.09900
Br529      Br  0.31045240  0.64805646  0.04276023    -0.05600
Br530      Br  0.31305070  0.71917588  0.91300383    -0.02600
Br531      Br  0.43736954  0.63131521  0.03314507     0.00300
Br532      Br  0.31516749  0.59974182  0.95530798    -0.04100
C533        C  0.60080072  0.59603205  0.00028565    -0.11500
C534        C  0.62496676  0.59501850  0.02052175     0.04000
C535        C  0.64636065  0.61775723  0.02053571    -0.12000
C536        C  0.64376167  0.64230077  0.00132086     0.18800
C537        C  0.61925909  0.64369550  0.98158560    -0.09100
C538        C  0.59815578  0.62065498  0.98112600    -0.02000
H539        H  0.66484332  0.61661848  0.03612095     0.05400
C540        C  0.66653302  0.66634818  0.00274213     0.20800
H541        H  0.57950696  0.62203484  0.96575890     0.10500
C542        C  0.68465490  0.67220257  0.97779120    -0.15400
C543        C  0.70701016  0.69402128  0.97896898     0.03500
C544        C  0.71216846  0.70969346  0.00566192    -0.10700
C545        C  0.69339366  0.70465578  0.03018884    -0.00800
C546        C  0.67075020  0.68324133  0.02894718    -0.05900
H547        H  0.68129226  0.65985197  0.95729913     0.06500
H548        H  0.69670405  0.71724591  0.05053343     0.09900
Br549      Br  0.61271823  0.67733423  0.95603537    -0.05600
Br550      Br  0.62833710  0.56480407  0.05061491    -0.02600
Br551      Br  0.72828519  0.70345701  0.94312465     0.00300
Br552      Br  0.64563451  0.67854965  0.06334312    -0.04100
C553        C  0.29034912  0.28085416  0.99836333    -0.11500
C554        C  0.30930690  0.28392972  0.02340587     0.04000
C555        C  0.33149724  0.30602868  0.02373950    -0.12000
C556        C  0.33492206  0.32565581  0.99963526     0.18800
C557        C  0.31565514  0.32299251  0.97495549    -0.09100
C558        C  0.29381300  0.30069471  0.97440271    -0.02000
H559        H  0.34591281  0.30816959  0.04304428     0.05400
C560        C  0.35883332  0.34860084  0.00022715     0.20800
H561        H  0.27923477  0.29891097  0.95520464     0.10500
C562        C  0.38513958  0.34376297  0.98394258    -0.15400
C563        C  0.40759340  0.36549741  0.98249310     0.03500
C564        C  0.40402303  0.39295645  0.99773292    -0.10700
C565        C  0.37755923  0.39756958  0.01415704    -0.00800
C566        C  0.35518863  0.37571335  0.01554362    -0.05900
H567        H  0.38795833  0.32309222  0.97178872     0.06500
H568        H  0.37426801  0.41826608  0.02613053     0.09900
Br569      Br  0.31778939  0.35003214  0.94193593    -0.05600
Br570      Br  0.30446342  0.26043990  0.05868917    -0.02600
Br571      Br  0.44133901  0.35676137  0.95745354     0.00300
Br572      Br  0.31958022  0.38406821  0.03789035    -0.04100
C573        C  0.71840751  0.50976753  0.79154363    -0.11500
C574        C  0.69605430  0.53118172  0.79745561     0.04000
C575        C  0.67701699  0.52753384  0.82175056    -0.12000
C576        C  0.67927229  0.50246377  0.84004986     0.18800
C577        C  0.70225475  0.48159216  0.83500666    -0.09100
C578        C  0.72194629  0.48559941  0.81102702    -0.02000
H579        H  0.65940408  0.54367263  0.82560972     0.05400
C580        C  0.65553482  0.49783949  0.86233306     0.20800
H581        H  0.73859645  0.46870431  0.80633910     0.10500
C582        C  0.62875310  0.48444701  0.85320762    -0.15400
C583        C  0.60378214  0.48379073  0.87203895     0.03500
C584        C  0.60557026  0.49659282  0.90081966    -0.10700
C585        C  0.63272143  0.50971463  0.90984166    -0.00800
C586        C  0.65742602  0.51059260  0.89083680    -0.05900
H587        H  0.62706284  0.47513102  0.83096111     0.06500
H588        H  0.63465645  0.51992486  0.93166430     0.09900
Br589      Br  0.70606691  0.44626428  0.85861362    -0.05600
Br590      Br  0.68953915  0.56527645  0.77242602    -0.02600
Br591      Br  0.56846446  0.46464224  0.85703965     0.00300
Br592      Br  0.69288329  0.53050392  0.90422409    -0.04100
C593        C  0.28363822  0.48646592  0.79145922    -0.11500
C594        C  0.28956628  0.51184724  0.80892394     0.04000
C595        C  0.31206869  0.51093770  0.83058767    -0.12000
C596        C  0.32933967  0.48519114  0.83462486     0.18800
C597        C  0.32288515  0.45957077  0.81775429    -0.09100
C598        C  0.30018007  0.46039047  0.79634353    -0.02000
H599        H  0.31706051  0.53078870  0.84337815     0.05400
C600        C  0.35458472  0.48580315  0.85583643     0.20800
H601        H  0.29664479  0.44116586  0.78217643     0.10500
C602        C  0.35117058  0.47238872  0.88373758    -0.15400
C603        C  0.37418738  0.47316327  0.90479367     0.03500
C604        C  0.40151048  0.48772960  0.89797351    -0.10700
C605        C  0.40504043  0.50050708  0.86959644    -0.00800
C606        C  0.38179827  0.49980994  0.84869030    -0.05900
H607        H  0.33035979  0.46133394  0.88919546     0.06500
H608        H  0.42567083  0.51173636  0.86387097     0.09900
Br609      Br  0.34627045  0.42393973  0.82121001    -0.05600
Br610      Br  0.27047941  0.54931493  0.80122308    -0.02600
Br611      Br  0.36664248  0.45276669  0.94177015     0.00300
Br612      Br  0.38818939  0.51830487  0.81068231    -0.04100
C613        C  0.27906612  0.50867050  0.19354701    -0.11500
C614        C  0.29869517  0.53263781  0.18880846     0.04000
C615        C  0.31941733  0.53126430  0.16569038    -0.12000
C616        C  0.32074534  0.50623775  0.14717787     0.18800
C617        C  0.29916592  0.48367885  0.14989054    -0.09100
C618        C  0.27830286  0.48504847  0.17308714    -0.02000
H619        H  0.33565935  0.54896201  0.16319937     0.05400
C620        C  0.34653226  0.50303903  0.12725147     0.20800
H621        H  0.26321287  0.46653661  0.17659590     0.10500
C622        C  0.37040572  0.48468620  0.13597399    -0.15400
C623        C  0.39624057  0.48262994  0.11850740     0.03500
C624        C  0.39817960  0.49920893  0.09192677    -0.10700
C625        C  0.37412648  0.51754912  0.08340435    -0.00800
C626        C  0.34850973  0.51966029  0.10091212    -0.05900
H627        H  0.36891715  0.47202719  0.15649070     0.06500
H628        H  0.37528078  0.53037883  0.06296421     0.09900
Br629      Br  0.29879627  0.45000242  0.12356075    -0.05600
Br630      Br  0.29954324  0.56660453  0.21475456    -0.02600
Br631      Br  0.42714976  0.45570935  0.13103419     0.00300
Br632      Br  0.31661708  0.54520724  0.08800903    -0.04100
C633        C  0.60254466  0.49787177  0.09697094    -0.11500
C634        C  0.63116038  0.48538264  0.09168895     0.04000
C635        C  0.65461342  0.49107753  0.11148745    -0.12000
C636        C  0.65012843  0.50846296  0.13704796     0.18800
C637        C  0.62133116  0.51981944  0.14304590    -0.09100
C638        C  0.59788806  0.51444932  0.12311704    -0.02000
H639        H  0.67658034  0.48201500  0.10681977     0.05400
C640        C  0.67578646  0.51503200  0.15687211     0.20800
H641        H  0.57616628  0.52415484  0.12762360     0.10500
C642        C  0.68519745  0.54464242  0.16027769    -0.15400
C643        C  0.70756348  0.55202652  0.18077340     0.03500
C644        C  0.72093376  0.52961418  0.19809857    -0.10700
C645        C  0.71299831  0.49984141  0.19334021    -0.00800
C646        C  0.69071408  0.49236819  0.17277819    -0.05900
H647        H  0.67457340  0.56214062  0.14745637     0.06500
H648        H  0.72309550  0.48248567  0.20676591     0.09900
Br649      Br  0.61272513  0.54273918  0.17816661    -0.05600
Br650      Br  0.63969476  0.45943469  0.05860783    -0.02600
Br651      Br  0.71899971  0.59292107  0.18460576     0.00300
Br652      Br  0.68021053  0.45116104  0.16891525    -0.04100
C653        C  0.89590260  0.58959740  0.99242968    -0.11500
C654        C  0.86756013  0.58264791  0.97997664     0.04000
C655        C  0.84389984  0.60273756  0.98276341    -0.12000
C656        C  0.84774430  0.62971712  0.99771403     0.18800
C657        C  0.87578035  0.63688448  0.00995313    -0.09100
C658        C  0.89963745  0.61697303  0.00709933    -0.02000
H659        H  0.82245340  0.59750714  0.97282216     0.05400
C660        C  0.82300799  0.65125822  0.99819372     0.20800
H661        H  0.92097032  0.62264548  0.01701401     0.10500
C662        C  0.80400751  0.65282502  0.02304629    -0.15400
C663        C  0.78286241  0.67570238  0.02541573     0.03500
C664        C  0.78079143  0.69719965  0.00266464    -0.10700
C665        C  0.79873868  0.69453492  0.97717810    -0.00800
C666        C  0.81953593  0.67158344  0.97466548    -0.05900
H667        H  0.80657128  0.63706981  0.04115727     0.06500
H668        H  0.79762980  0.71130069  0.95984381     0.09900
Br669      Br  0.88240174  0.67363011  0.03072589    -0.05600
Br670      Br  0.85943820  0.54696604  0.95764618    -0.02600
Br671      Br  0.75978719  0.67853658  0.06137664     0.00300
Br672      Br  0.84427398  0.67004401  0.93971662    -0.04100
C673        C  0.89822563  0.39493336  0.99165747    -0.11500
C674        C  0.87310830  0.39657603  0.01066990     0.04000
C675        C  0.84982425  0.37608327  0.00742828    -0.12000
C676        C  0.85116674  0.35388086  0.98548311     0.18800
C677        C  0.87646549  0.35200000  0.96683858    -0.09100
C678        C  0.89975652  0.37240265  0.97009833    -0.02000
H679        H  0.83063413  0.37737243  0.02212846     0.05400
C680        C  0.82627558  0.33251183  0.98269578     0.20800
H681        H  0.91887430  0.37105294  0.95529889     0.10500
C682        C  0.80646718  0.33486658  0.95855234    -0.15400
C683        C  0.78426307  0.31340315  0.95389098     0.03500
C684        C  0.78150919  0.28930903  0.97380277    -0.10700
C685        C  0.80062701  0.28773481  0.99860793    -0.00800
C686        C  0.82283868  0.30910767  0.00320464    -0.05900
H687        H  0.80903041  0.35286718  0.94268770     0.06500
H688        H  0.79924352  0.26891125  0.01364295     0.09900
Br689      Br  0.88055183  0.32173777  0.93692845    -0.05600
Br690      Br  0.87016047  0.42528824  0.04233953    -0.02600
Br691      Br  0.76034598  0.31660750  0.91859828     0.00300
Br692      Br  0.84955728  0.30414642  0.03634196    -0.04100
C693        C  0.22125968  0.69184711  0.96896673    -0.11500
C694        C  0.21754699  0.66791069  0.94904814     0.04000
C695        C  0.19550608  0.64643106  0.95459006    -0.12000
C696        C  0.17662268  0.64875139  0.97957737     0.18800
C697        C  0.18199308  0.67148270  0.00062846    -0.09100
C698        C  0.20411239  0.69273539  0.99513619    -0.02000
H699        H  0.19212779  0.62863810  0.93862077     0.05400
C700        C  0.15054128  0.62848685  0.98253245     0.20800
H701        H  0.20661450  0.71124460  0.01045052     0.10500
C702        C  0.14869245  0.60935636  0.00719005    -0.15400
C703        C  0.12398999  0.59070427  0.01112732     0.03500
C704        C  0.10048472  0.59089921  0.99017641    -0.10700
C705        C  0.10218700  0.61002171  0.96552327    -0.00800
C706        C  0.12703378  0.62857536  0.96144577    -0.05900
H707        H  0.16655554  0.60898562  0.02350649     0.06500
H708        H  0.08454156  0.60991485  0.94895485     0.09900
Br709      Br  0.15797131  0.67642905  0.03579144    -0.05600
Br710      Br  0.24038706  0.66488011  0.91302117    -0.02600
Br711      Br  0.12290883  0.56598402  0.04603996     0.00300
Br712      Br  0.12756832  0.65374118  0.92683439    -0.04100
C713        C  0.10079903  0.39518959  0.98710052    -0.11500
C714        C  0.12544984  0.40142369  0.96835247     0.04000
C715        C  0.14971342  0.38193567  0.96711365    -0.12000
C716        C  0.14993552  0.35577528  0.98391932     0.18800
C717        C  0.12477723  0.34865794  0.00159247    -0.09100
C718        C  0.10041496  0.36827549  0.00295895    -0.02000
H719        H  0.16876908  0.38747202  0.95326861     0.05400
C720        C  0.17707479  0.33691379  0.98392093     0.20800
H721        H  0.08155821  0.36290118  0.01712865     0.10500
C722        C  0.19254833  0.33276874  0.01084055    -0.15400
C723        C  0.21525205  0.31152337  0.01308867     0.03500
C724        C  0.22300258  0.29441052  0.98798478    -0.10700
C725        C  0.20981724  0.30082739  0.96034015    -0.00800
C726        C  0.18707025  0.32203736  0.95804269    -0.05900
H727        H  0.18567197  0.34483837  0.03062971     0.06500
H728        H  0.21561934  0.28761267  0.94093821     0.09900
Br729      Br  0.12265678  0.31246308  0.02426739    -0.05600
Br730      Br  0.12718870  0.43556656  0.94288568    -0.02600
Br731      Br  0.23207725  0.30408741  0.05167371     0.00300
Br732      Br  0.16860206  0.32735491  0.91975651    -0.04100
C733        C  0.90138127  0.49031083  0.89057267    -0.11500
C734        C  0.87415063  0.47440561  0.89249945     0.04000
C735        C  0.85294953  0.47652192  0.86943666    -0.12000
C736        C  0.85859119  0.49353564  0.84378939     0.18800
C737        C  0.88643013  0.50784877  0.84099951    -0.09100
C738        C  0.90734172  0.50635586  0.86426628    -0.02000
H739        H  0.83195545  0.46469825  0.87144801     0.05400
C740        C  0.83480352  0.49680604  0.82075876     0.20800
H741        H  0.92829508  0.51817840  0.86187119     0.10500
C742        C  0.81595046  0.52177785  0.82161255    -0.15400
C743        C  0.79264714  0.52528466  0.80090856     0.03500
C744        C  0.78746249  0.50326078  0.77898120    -0.10700
C745        C  0.80667073  0.47846275  0.77797766    -0.00800
C746        C  0.83020248  0.47520401  0.79845470    -0.05900
H747        H  0.81953031  0.53876115  0.83840418     0.06500
H748        H  0.80320516  0.46143274  0.76124113     0.09900
Br749      Br  0.89715465  0.52923837  0.80559339    -0.05600
Br750      Br  0.86558961  0.44753585  0.92467773    -0.02600
Br751      Br  0.77019123  0.56158107  0.80245895     0.00300
Br752      Br  0.85582862  0.44117436  0.79487852    -0.04100
C753        C  0.10149006  0.49286609  0.89610368    -0.11500
C754        C  0.12887043  0.50806060  0.90030147     0.04000
C755        C  0.15132325  0.50632013  0.87855768    -0.12000
C756        C  0.14720560  0.48981867  0.85229225     0.18800
C757        C  0.12025526  0.47411042  0.84831746    -0.09100
C758        C  0.09766137  0.47589682  0.86996548    -0.02000
H759        H  0.17194596  0.51851135  0.88183502     0.05400
C760        C  0.17050567  0.49077252  0.82861445     0.20800
H761        H  0.07707239  0.46372163  0.86643529     0.10500
C762        C  0.18661579  0.46494934  0.82121891    -0.15400
C763        C  0.20819171  0.46533317  0.79848208     0.03500
C764        C  0.21447119  0.49201555  0.78316076    -0.10700
C765        C  0.19807902  0.51766636  0.79028810    -0.00800
C766        C  0.17636566  0.51726239  0.81281861    -0.05900
H767        H  0.18202345  0.44432418  0.83284257     0.06500
H768        H  0.20234037  0.53812613  0.77828029     0.09900
Br769      Br  0.11291597  0.45070575  0.81323472    -0.05600
Br770      Br  0.13647211  0.53324599  0.93412502    -0.02600
Br771      Br  0.22655529  0.42841752  0.78740061     0.00300
Br772      Br  0.15444631  0.55319578  0.82049814    -0.04100
C773        C  0.09810735  0.50008536  0.09565860    -0.11500
C774        C  0.09269034  0.51406541  0.12356661     0.04000
C775        C  0.11546639  0.51552003  0.14508756    -0.12000
C776        C  0.14401840  0.50405456  0.13924751     0.18800
C777        C  0.14995768  0.49151145  0.11112758    -0.09100
C778        C  0.12716749  0.48941305  0.08978106    -0.02000
H779        H  0.11091563  0.52577019  0.16650725     0.05400
C780        C  0.16700865  0.50403988  0.16311161     0.20800
H781        H  0.13226374  0.47919100  0.06848228     0.10500
C782        C  0.17089224  0.47827336  0.18031267    -0.15400
C783        C  0.19354027  0.47652443  0.20181258     0.03500
C784        C  0.21195663  0.50129628  0.20744936    -0.10700
C785        C  0.20806911  0.52713032  0.19018196    -0.00800
C786        C  0.18613351  0.52846486  0.16782796    -0.05900
H787        H  0.15700565  0.45898616  0.17610615     0.06500
H788        H  0.22269858  0.54600138  0.19364307     0.09900
Br789      Br  0.18914442  0.47738940  0.10090954    -0.05600
Br790      Br  0.05567846  0.53355486  0.13329819    -0.02600
Br791      Br  0.20104780  0.43865640  0.21984191     0.00300
Br792      Br  0.18436482  0.56308888  0.14290795    -0.04100
C793        C  0.89788026  0.49653281  0.09145553    -0.11500
C794        C  0.90084057  0.48407043  0.12028889     0.04000
C795        C  0.87848537  0.48882313  0.14165967    -0.12000
C796        C  0.85284590  0.50555235  0.13490070     0.18800
C797        C  0.84965941  0.51752237  0.10601045    -0.09100
C798        C  0.87193839  0.51283027  0.08464531    -0.02000
H799        H  0.88121020  0.47956063  0.16381010     0.05400
C800        C  0.83036118  0.51121699  0.15860254     0.20800
H801        H  0.86923021  0.52264524  0.06273113     0.10500
C802        C  0.82550619  0.54053961  0.16828159    -0.15400
C803        C  0.80506015  0.54670567  0.19103734     0.03500
C804        C  0.78934500  0.52341300  0.20482502    -0.10700
C805        C  0.79397419  0.49409971  0.19525777    -0.00800
C806        C  0.81436079  0.48784572  0.17230450    -0.05900
H807        H  0.83778367  0.55869049  0.15817046     0.06500
H808        H  0.78167500  0.47615106  0.20565132     0.09900
Br809      Br  0.81524345  0.54022773  0.09430949    -0.05600
Br810      Br  0.93407847  0.45939604  0.13169486    -0.02600
Br811      Br  0.79901675  0.58727436  0.20274821     0.00300
Br812      Br  0.81894354  0.44724489  0.15985634    -0.04100
C813        C  0.50854147  0.39412163  0.90030051    -0.11500
C814        C  0.52546226  0.36813597  0.90597901     0.04000
C815        C  0.52471335  0.34451621  0.88581228    -0.12000
C816        C  0.50729840  0.34611567  0.85995546     0.18800
C817        C  0.49033344  0.37193812  0.85421865    -0.09100
C818        C  0.49135861  0.39583066  0.87417928    -0.02000
H819        H  0.53792966  0.32477520  0.89022464     0.05400
C820        C  0.50800720  0.32092653  0.83888097     0.20800
H821        H  0.47800007  0.41545963  0.86969974     0.10500
C822        C  0.48253170  0.30314956  0.83525683    -0.15400
C823        C  0.48186542  0.28069648  0.81363503     0.03500
C824        C  0.50729479  0.27524904  0.79594070    -0.10700
C825        C  0.53325582  0.29210935  0.80069300    -0.00800
C826        C  0.53373452  0.31493241  0.82183552    -0.05900
H827        H  0.46263827  0.30775750  0.84826400     0.06500
H828        H  0.55252962  0.28890564  0.78638609     0.09900
Br829      Br  0.46542992  0.37570718  0.81958939    -0.05600
Br830      Br  0.55110406  0.36371695  0.94004659    -0.02600
Br831      Br  0.44447614  0.26128524  0.80619900     0.00300
Br832      Br  0.56879694  0.33943804  0.82429266    -0.04100
C833        C  0.51764024  0.71383446  0.79374802    -0.11500
C834        C  0.54157273  0.70807061  0.81327372     0.04000
C835        C  0.53829634  0.68676315  0.83590651    -0.12000
C836        C  0.51157311  0.67055367  0.83880203     0.18800
C837        C  0.48734224  0.67725365  0.81989366    -0.09100
C838        C  0.49050882  0.69882050  0.79774090    -0.02000
H839        H  0.55707103  0.68179472  0.85034520     0.05400
C840        C  0.50971047  0.64540294  0.86007755     0.20800
H841        H  0.47224342  0.70263046  0.78231821     0.10500
C842        C  0.48901582  0.64666547  0.88355253    -0.15400
C843        C  0.48497874  0.62237330  0.90259925     0.03500
C844        C  0.50250332  0.59645691  0.89886837    -0.10700
C845        C  0.52296363  0.59506929  0.87520115    -0.00800
C846        C  0.52659896  0.61920809  0.85582225    -0.05900
H847        H  0.47540694  0.66640327  0.88658941     0.06500
H848        H  0.53656940  0.57534398  0.87208165     0.09900
Br849      Br  0.45057969  0.65528074  0.82111370    -0.05600
Br850      Br  0.57980015  0.72653206  0.80788663    -0.02600
Br851      Br  0.45367598  0.62502450  0.93187162     0.00300
Br852      Br  0.55409430  0.61481607  0.82325521    -0.04100
C853        C  0.51579005  0.71445222  0.20030139    -0.11500
C854        C  0.54212311  0.69913911  0.19266740     0.04000
C855        C  0.54171606  0.67822202  0.16950777    -0.12000
C856        C  0.51520264  0.67252375  0.15371822     0.18800
C857        C  0.48952459  0.68970345  0.15993873    -0.09100
C858        C  0.49001907  0.71055290  0.18307329    -0.02000
H859        H  0.56169672  0.66542370  0.16475251     0.05400
C860        C  0.51374006  0.64687229  0.13299820     0.20800
H861        H  0.46964557  0.72224204  0.18893548     0.10500
C862        C  0.49530293  0.62266239  0.14034572    -0.15400
C863        C  0.49219937  0.59839127  0.12101046     0.03500
C864        C  0.50791860  0.59799416  0.09376830    -0.10700
C865        C  0.52676246  0.62204740  0.08667972    -0.00800
C866        C  0.52999568  0.64619854  0.10612946    -0.05900
H867        H  0.48284319  0.62291480  0.16108050     0.06500
H868        H  0.53915013  0.62202223  0.06589298     0.09900
Br869      Br  0.45279011  0.68447321  0.13849552    -0.05600
Br870      Br  0.57858339  0.70553586  0.21428762    -0.02600
Br871      Br  0.46448304  0.56766244  0.13192730     0.00300
Br872      Br  0.55621140  0.67796092  0.09461704    -0.04100
C873        C  0.49491414  0.39552977  0.09672933    -0.11500
C874        C  0.48154935  0.36800081  0.08888468     0.04000
C875        C  0.47981145  0.34513392  0.10973785    -0.12000
C876        C  0.48995327  0.34916936  0.13888668     0.18800
C877        C  0.50248624  0.37665691  0.14728380    -0.09100
C878        C  0.50509171  0.39953271  0.12618015    -0.02000
H879        H  0.46954479  0.32421403  0.10343937     0.05400
C880        C  0.48554158  0.32472575  0.16033272     0.20800
H881        H  0.51503311  0.42047527  0.13285036     0.10500
C882        C  0.51020183  0.30814578  0.17017969    -0.15400
C883        C  0.50643392  0.28490624  0.19058837     0.03500
C884        C  0.47765009  0.27805920  0.20128646    -0.10700
C885        C  0.45297835  0.29416541  0.19079390    -0.00800
C886        C  0.45666691  0.31712652  0.17018684    -0.05900
H887        H  0.53243899  0.31367485  0.16238973     0.06500
H888        H  0.43091650  0.28977154  0.19972615     0.09900
Br889      Br  0.51493050  0.38428885  0.18753342    -0.05600
Br890      Br  0.46249821  0.36027046  0.05124384    -0.02600
Br891      Br  0.54140797  0.26489548  0.20511894     0.00300
Br892      Br  0.42184974  0.33871537  0.15753197    -0.04100
C893        C  0.59557525  0.09742923  0.99456073    -0.11500
C894        C  0.62605628  0.09521598  0.00288902     0.04000
C895        C  0.64554240  0.11904155  0.99743231    -0.12000
C896        C  0.63542711  0.14528903  0.98380205     0.18800
C897        C  0.60518259  0.14780206  0.97588792    -0.09100
C898        C  0.58558389  0.12422217  0.98146110    -0.02000
H899        H  0.66883505  0.11706271  0.00376913     0.05400
C900        C  0.65682918  0.16971487  0.97785142     0.20800
H901        H  0.56245782  0.12673225  0.97475496     0.10500
C902        C  0.66622424  0.17519934  0.94847648    -0.15400
C903        C  0.68825449  0.19650413  0.94252215     0.03500
C904        C  0.70114136  0.21274763  0.96612213    -0.10700
C905        C  0.69061059  0.20836167  0.99526252    -0.00800
C906        C  0.66868473  0.18697133  0.00125090    -0.05900
H907        H  0.65698851  0.16228893  0.93025717     0.06500
H908        H  0.70067652  0.22034056  0.01364691     0.09900
Br909      Br  0.58972819  0.18312165  0.95738979    -0.05600
Br910      Br  0.64267744  0.06106367  0.02263220    -0.02600
Br911      Br  0.70063319  0.20236435  0.90195443     0.00300
Br912      Br  0.65612684  0.18141635  0.04178251    -0.04100
C913        C  0.40288714  0.88976471  0.98946801    -0.11500
C914        C  0.40981543  0.86351302  0.97337454     0.04000
C915        C  0.38841616  0.84103160  0.97036452    -0.12000
C916        C  0.35967436  0.84426189  0.98236723     0.18800
C917        C  0.35241332  0.87060330  0.99782943    -0.09100
C918        C  0.37394412  0.89299181  0.00135990    -0.02000
H919        H  0.39394509  0.82117585  0.95777367     0.05400
C920        C  0.33719296  0.82067950  0.97665053     0.20800
H921        H  0.36795078  0.91308454  0.01333536     0.10500
C922        C  0.32696899  0.80266258  0.00011971    -0.15400
C923        C  0.30534234  0.78059234  0.99508931     0.03500
C924        C  0.29450948  0.77549306  0.96595514    -0.10700
C925        C  0.30482293  0.79359615  0.94261298    -0.00800
C926        C  0.32570459  0.81614528  0.94777104    -0.05900
H927        H  0.33511198  0.80646130  0.02256662     0.06500
H928        H  0.29560843  0.79096319  0.92040867     0.09900
Br929      Br  0.31295274  0.87767479  0.01302063    -0.05600
Br930      Br  0.44685573  0.85790221  0.95233684    -0.02600
Br931      Br  0.28851786  0.76104428  0.02918894     0.00300
Br932      Br  0.33581446  0.84202067  0.91525123    -0.04100
C933        C  0.60022355  0.89445708  0.00763820    -0.11500
C934        C  0.62847275  0.89491807  0.99364355     0.04000
C935        C  0.64740478  0.87026419  0.99620410    -0.12000
C936        C  0.63886199  0.84521255  0.01279633     0.18800
C937        C  0.61140243  0.84524100  0.02792876    -0.09100
C938        C  0.59226253  0.86961469  0.02507319    -0.02000
H939        H  0.66885197  0.87047607  0.98496095     0.05400
C940        C  0.65934181  0.81960664  0.01439200     0.20800
H941        H  0.57089754  0.86906248  0.03646371     0.10500
C942        C  0.67434678  0.81381586  0.04121028    -0.15400
C943        C  0.69692064  0.79242057  0.04234012     0.03500
C944        C  0.70491262  0.77688146  0.01630191    -0.10700
C945        C  0.68850597  0.78106630  0.99002570    -0.00800
C946        C  0.66568343  0.80228845  0.98894501    -0.05900
H947        H  0.66918795  0.82668807  0.06100848     0.06500
H948        H  0.69448884  0.76897132  0.96996134     0.09900
Br949      Br  0.59876863  0.81214694  0.05189825    -0.05600
Br950      Br  0.64191520  0.92748505  0.96943843    -0.02600
Br951      Br  0.71664288  0.78536374  0.07968631     0.00300
Br952      Br  0.64425160  0.80745432  0.95221505    -0.04100
C953        C  0.39901213  0.09116189  0.99747294    -0.11500
C954        C  0.37332658  0.09140044  0.97923289     0.04000
C955        C  0.35372978  0.11574348  0.98041607    -0.12000
C956        C  0.35942407  0.13986489  0.99952940     0.18800
C957        C  0.38488176  0.13947260  0.01782149    -0.09100
C958        C  0.40447590  0.11537747  0.01655905    -0.02000
H959        H  0.33409158  0.11598776  0.96627058     0.05400
C960        C  0.33822954  0.16497122  0.00074912     0.20800
H961        H  0.42413813  0.11553306  0.03069202     0.10500
C962        C  0.31757197  0.16614369  0.02415033    -0.15400
C963        C  0.29592328  0.18848106  0.02513482     0.03500
C964        C  0.29507981  0.21052618  0.00272822    -0.10700
C965        C  0.31667658  0.21016457  0.98002425    -0.00800
C966        C  0.33806260  0.18735185  0.97878075    -0.05900
H967        H  0.31773693  0.14906724  0.04121058     0.06500
H968        H  0.31573777  0.22648520  0.96226805     0.09900
Br969      Br  0.39401662  0.17155805  0.04455257    -0.05600
Br970      Br  0.36503362  0.06026714  0.95106563    -0.02600
Br971      Br  0.26714402  0.18720283  0.05697004     0.00300
Br972      Br  0.36576728  0.18658104  0.94611654    -0.04100
C973        C  0.49610311  0.09241235  0.89760816    -0.11500
C974        C  0.47963511  0.11917327  0.90110342     0.04000
C975        C  0.47998142  0.14086292  0.87854652    -0.12000
C976        C  0.49627160  0.13660153  0.85210644     0.18800
C977        C  0.51226060  0.10979514  0.84835564    -0.09100
C978        C  0.51198512  0.08806617  0.87083966    -0.02000
H979        H  0.46741750  0.16126034  0.88165884     0.05400
C980        C  0.49675985  0.16052725  0.82901336     0.20800
H981        H  0.52465389  0.06777632  0.86748334     0.10500
C982        C  0.52357019  0.17573421  0.82314874    -0.15400
C983        C  0.52485945  0.19833103  0.80156275     0.03500
C984        C  0.49900836  0.20639924  0.78555091    -0.10700
C985        C  0.47231172  0.19100618  0.79115074    -0.00800
C986        C  0.47092333  0.16847281  0.81277671    -0.05900
H987        H  0.54366064  0.16981704  0.83527688     0.06500
H988        H  0.45234921  0.19682882  0.77888095     0.09900
Br989      Br  0.53426350  0.10146217  0.81255862    -0.05600
Br990      Br  0.45480539  0.12703367  0.93522233    -0.02600
Br991      Br  0.56277134  0.21621046  0.79320742     0.00300
Br992      Br  0.43340748  0.14870828  0.81870821    -0.04100
C993        C  0.50820801  0.89291680  0.89864980    -0.11500
C994        C  0.48847935  0.89260690  0.87404637     0.04000
C995        C  0.49115203  0.87054426  0.85207100    -0.12000
C996        C  0.51335703  0.84855957  0.85394806     0.18800
C997        C  0.53312925  0.84879225  0.87840486    -0.09100
C998        C  0.53029072  0.87066850  0.90063590    -0.02000
H999        H  0.47566215  0.87039074  0.83348712     0.05400
C1000       C  0.51522070  0.82539644  0.83034884     0.20800
H1001       H  0.54566014  0.87055969  0.91931909     0.10500
C1002       C  0.53848519  0.82638445  0.80938341    -0.15400
C1003       C  0.54078624  0.80481650  0.78686715     0.03500
C1004       C  0.51882868  0.78242237  0.78423207    -0.10700
C1005       C  0.49584717  0.78123615  0.80555714    -0.00800
C1006       C  0.49417244  0.80217994  0.82868150    -0.05900
H1007       H  0.55531384  0.84362794  0.81099021     0.06500
H1008       H  0.47924045  0.76378926  0.80429644     0.09900
Br1009     Br  0.56373659  0.81911397  0.88256609    -0.05600
Br1010     Br  0.45613830  0.92051537  0.87036572    -0.02600
Br1011     Br  0.57600493  0.80515635  0.76254647     0.00300
Br1012     Br  0.46389488  0.79723724  0.85855736    -0.04100
C1013       C  0.50343208  0.89407771  0.09948303    -0.11500
C1014       C  0.51988576  0.89781316  0.12624456     0.04000
C1015       C  0.52008678  0.87522480  0.14786089    -0.12000
C1016       C  0.50450107  0.84850508  0.14338461     0.18800
C1017       C  0.48850881  0.84453975  0.11660527    -0.09100
C1018       C  0.48811544  0.86711084  0.09502629    -0.02000
H1019       H  0.53273254  0.87840789  0.16823560     0.05400
C1020       C  0.50521218  0.82508588  0.16685104     0.20800
H1021       H  0.47556515  0.86357665  0.07466030     0.10500
C1022       C  0.47876479  0.81757620  0.18201016    -0.15400
C1023       C  0.47869259  0.79547087  0.20407676     0.03500
C1024       C  0.50550480  0.78115558  0.21202944    -0.10700
C1025       C  0.53184990  0.78833270  0.19668122    -0.00800
C1026       C  0.53185740  0.80990826  0.17411589    -0.05900
H1027       H  0.45799876  0.82858953  0.17625301     0.06500
H1028       H  0.55238719  0.77674558  0.20208264     0.09900
Br1029     Br  0.46774831  0.80820000  0.10799377    -0.05600
Br1030     Br  0.54436831  0.93205742  0.13392387    -0.02600
Br1031     Br  0.44123273  0.78362222  0.22092240     0.00300
Br1032     Br  0.56831089  0.81646802  0.15255628    -0.04100
C1033       C  0.49242882  0.09373738  0.09692761    -0.11500
C1034       C  0.51229089  0.11807111  0.09683423     0.04000
C1035       C  0.50971730  0.14045673  0.11857206    -0.12000
C1036       C  0.48743268  0.13926250  0.14071885     0.18800
C1037       C  0.46711705  0.11510807  0.14024726    -0.09100
C1038       C  0.47004737  0.09252415  0.11879798    -0.02000
H1039       H  0.52519179  0.15896630  0.11812843     0.05400
C1040       C  0.48539528  0.16352531  0.16361227     0.20800
H1041       H  0.45438845  0.07414216  0.11887623     0.10500
C1042       C  0.45888186  0.18020193  0.16616285    -0.15400
C1043       C  0.45564217  0.20227981  0.18809638     0.03500
C1044       C  0.47938209  0.20863786  0.20773674    -0.10700
C1045       C  0.50604461  0.19244615  0.20499611    -0.00800
C1046       C  0.50934412  0.17028173  0.18313127    -0.05900
H1047       H  0.44037471  0.17572838  0.15124383     0.06500
H1048       H  0.52433600  0.19701655  0.22013815     0.09900
Br1049     Br  0.43498438  0.11133069  0.16837995    -0.05600
Br1050     Br  0.54421330  0.12089678  0.06826992    -0.02600
Br1051     Br  0.41765312  0.22166769  0.19169335     0.00300
Br1052     Br  0.54671862  0.14932443  0.18197233    -0.04100
C1053       C  0.40146654  0.98131751  0.09888909    -0.11500
C1054       C  0.41013937  0.97113025  0.12772524     0.04000
C1055       C  0.38931826  0.97038964  0.15079441    -0.12000
C1056       C  0.35988871  0.97915755  0.14593724     0.18800
C1057       C  0.35066446  0.98809663  0.11734215    -0.09100
C1058       C  0.37139768  0.98905443  0.09402270    -0.02000
H1059       H  0.39618619  0.96322252  0.17285222     0.05400
C1060       C  0.33952223  0.98034084  0.17146013     0.20800
H1061       H  0.36413206  0.99675966  0.07230509     0.10500
C1062       C  0.33720123  0.00695094  0.18753789    -0.15400
C1063       C  0.31550033  0.01020098  0.20962442     0.03500
C1064       C  0.29634448  0.98628421  0.21615670    -0.10700
C1065       C  0.30021569  0.95896434  0.20149447    -0.00800
C1066       C  0.32162751  0.95587902  0.17909594    -0.05900
H1067       H  0.35115123  0.02575712  0.18166681     0.06500
H1068       H  0.28502823  0.94072244  0.20592267     0.09900
Br1069     Br  0.31018668  0.99995399  0.10958161    -0.05600
Br1070     Br  0.44944378  0.95708480  0.13813534    -0.02600
Br1071     Br  0.31029136  0.04883332  0.22694732     0.00300
Br1072     Br  0.32398611  0.91892846  0.15777079    -0.04100
C1073       C  0.60123905  0.99029145  0.90057740    -0.11500
C1074       C  0.60117763  0.96750210  0.87897852     0.04000
C1075       C  0.62060059  0.96900484  0.85459423    -0.12000
C1076       C  0.64049191  0.99290402  0.85146333     0.18800
C1077       C  0.64115502  0.01523604  0.87363921    -0.09100
C1078       C  0.62166784  0.01371315  0.89800397    -0.02000
H1079       H  0.62017342  0.95148610  0.83797434     0.05400
C1080       C  0.66076956  0.99389300  0.82533374     0.20800
H1081       H  0.62184984  0.03133945  0.91452131     0.10500
C1082       C  0.65874724  0.01762878  0.80504119    -0.15400
C1083       C  0.68014427  0.02129937  0.78249210     0.03500
C1084       C  0.70323726  0.00018559  0.77918205    -0.10700
C1085       C  0.70378266  0.97531437  0.79810826    -0.00800
C1086       C  0.68324946  0.97231321  0.82135267    -0.05900
H1087       H  0.64150408  0.03434330  0.80791478     0.06500
H1088       H  0.72182943  0.95929881  0.79626984     0.09900
Br1089     Br  0.66842884  0.04809571  0.87199407    -0.05600
Br1090     Br  0.57580145  0.93335539  0.88246712    -0.02600
Br1091     Br  0.67890736  0.05741688  0.75993082     0.00300
Br1092     Br  0.68953601  0.94057918  0.84930778    -0.04100
C1093       C  0.29792952  0.00697575  0.77707585    -0.11500
C1094       C  0.30801047  0.03188265  0.79319689     0.04000
C1095       C  0.33119692  0.02877457  0.81387826    -0.12000
C1096       C  0.34470169  0.00100063  0.81875993     0.18800
C1097       C  0.33605699  0.97653873  0.80102210    -0.09100
C1098       C  0.31280220  0.97969009  0.78029691    -0.02000
H1099       H  0.33791017  0.04784190  0.82707250     0.05400
C1100       C  0.36608705  0.99780932  0.84383762     0.20800
H1101       H  0.30512431  0.96038305  0.76800593     0.10500
C1102       C  0.35772981  0.98138493  0.86917542    -0.15400
C1103       C  0.37656963  0.97946029  0.89413414     0.03500
C1104       C  0.40431993  0.99440557  0.89405448    -0.10700
C1105       C  0.41259668  0.01066468  0.86850891    -0.00800
C1106       C  0.39382977  0.01245741  0.84364521    -0.05900
H1107       H  0.33635652  0.97007936  0.86955261     0.06500
H1108       H  0.43383464  0.02221770  0.86786066     0.09900
Br1109     Br  0.35472761  0.93831212  0.80494326    -0.05600
Br1110     Br  0.28993014  0.07029875  0.78834289    -0.02600
Br1111     Br  0.36393449  0.95470619  0.92669151     0.00300
Br1112     Br  0.40743130  0.03453000  0.80961961    -0.04100
C1113       C  0.49826683  0.09017300  0.39077166    -0.11500
C1114       C  0.50819825  0.08238269  0.36166519     0.04000
C1115       C  0.50510333  0.10265329  0.33828031    -0.12000
C1116       C  0.49265284  0.13070468  0.34322765     0.18800
C1117       C  0.48353894  0.13894442  0.37207020    -0.09100
C1118       C  0.48633631  0.11874488  0.39554700    -0.02000
H1119       H  0.51271543  0.09664068  0.31611698     0.05400
C1120       C  0.49027251  0.15165501  0.31826358     0.20800
H1121       H  0.47862306  0.12529858  0.41750615     0.10500
C1122       C  0.46331160  0.15376350  0.30249171    -0.15400
C1123       C  0.45909657  0.17628960  0.28142039     0.03500
C1124       C  0.48222658  0.19671852  0.27587816    -0.10700
C1125       C  0.50976046  0.19344195  0.29048275    -0.00800
C1126       C  0.51392173  0.17104110  0.31159393    -0.05900
H1127       H  0.44506232  0.13880288  0.30767742     0.06500
H1128       H  0.52743952  0.20947980  0.28674553     0.09900
Br1129     Br  0.46732735  0.17764977  0.38030645    -0.05600
Br1130     Br  0.52752196  0.04537177  0.35186683    -0.02600
Br1131     Br  0.42052070  0.18015768  0.26329253     0.00300
Br1132     Br  0.55126048  0.16908890  0.33259835    -0.04100
C1133       C  0.49462319  0.89496186  0.39802953    -0.11500
C1134       C  0.50838325  0.86668225  0.40022235     0.04000
C1135       C  0.50819971  0.84739253  0.37562301    -0.12000
C1136       C  0.49423301  0.85547602  0.34882071     0.18800
C1137       C  0.47967250  0.88304505  0.34677829    -0.09100
C1138       C  0.48015271  0.90257982  0.37108722    -0.02000
H1139       H  0.51908397  0.82590769  0.37736356     0.05400
C1140       C  0.49397294  0.83411662  0.32378642     0.20800
H1141       H  0.46900184  0.92388274  0.36888116     0.10500
C1142       C  0.47144028  0.81258071  0.32285111    -0.15400
C1143       C  0.47227206  0.78977627  0.30169959     0.03500
C1144       C  0.49597845  0.78830339  0.28098693    -0.10700
C1145       C  0.51755765  0.81092137  0.28073697    -0.00800
C1146       C  0.51675766  0.83372639  0.30207989    -0.05900
H1147       H  0.45367274  0.81297332  0.33928358     0.06500
H1148       H  0.53610235  0.80978935  0.26522472     0.09900
Br1149     Br  0.45868053  0.89461114  0.31127025    -0.05600
Br1150     Br  0.52891398  0.85325864  0.43533104    -0.02600
Br1151     Br  0.44087753  0.76068542  0.30257726     0.00300
Br1152     Br  0.54819070  0.86269447  0.30209749    -0.04100
C1153       C  0.49181335  0.09876362  0.59404682    -0.11500
C1154       C  0.50251048  0.12822957  0.59132990     0.04000
C1155       C  0.50037440  0.14766479  0.61566019    -0.12000
C1156       C  0.48843176  0.13813708  0.64298999     0.18800
C1157       C  0.47681110  0.10927953  0.64545865    -0.09100
C1158       C  0.47837405  0.09000166  0.62112025    -0.02000
H1159       H  0.50926983  0.16999616  0.61369841     0.05400
C1160       C  0.49010777  0.15789894  0.66920743     0.20800
H1161       H  0.46957737  0.06770192  0.62372273     0.10500
C1162       C  0.46376599  0.16959085  0.68151967    -0.15400
C1163       C  0.46503203  0.19006357  0.70497960     0.03500
C1164       C  0.49290797  0.19857262  0.71674655    -0.10700
C1165       C  0.51911030  0.18573389  0.70543220    -0.00800
C1166       C  0.51792712  0.16569751  0.68164036    -0.05900
H1167       H  0.44229214  0.16372183  0.67202411     0.06500
H1168       H  0.54067894  0.19294865  0.71371806     0.09900
Br1169     Br  0.46046992  0.09454532  0.68222163    -0.05600
Br1170     Br  0.52285372  0.14271177  0.55650743    -0.02600
Br1171     Br  0.42843691  0.20789757  0.71837993     0.00300
Br1172     Br  0.55493635  0.15069557  0.66589953    -0.04100
C1173       C  0.50186662  0.90214612  0.60136288    -0.11500
C1174       C  0.51588368  0.90927484  0.62884508     0.04000
C1175       C  0.51728253  0.88808027  0.65164520    -0.12000
C1176       C  0.50556621  0.85951810  0.64761278     0.18800
C1177       C  0.49197366  0.85214943  0.62026372    -0.09100
C1178       C  0.49005922  0.87340892  0.59752684    -0.02000
H1179       H  0.52849967  0.89357558  0.67235771     0.05400
C1180       C  0.51026410  0.83699399  0.67117058     0.20800
H1181       H  0.47944546  0.86732861  0.57667043     0.10500
C1182       C  0.48735053  0.83050981  0.69156077    -0.15400
C1183       C  0.49103605  0.80804087  0.71301989     0.03500
C1184       C  0.51810952  0.79193964  0.71428773    -0.10700
C1185       C  0.54111029  0.79908392  0.69425612    -0.00800
C1186       C  0.53751347  0.82152070  0.67306527    -0.05900
H1187       H  0.46627602  0.84233316  0.69017144     0.06500
H1188       H  0.56170340  0.78635774  0.69445083     0.09900
Br1189     Br  0.47696002  0.81296259  0.61244835    -0.05600
Br1190     Br  0.53614301  0.94629436  0.63616957    -0.02600
Br1191     Br  0.45748551  0.79824226  0.73774135     0.00300
Br1192     Br  0.56991429  0.82919155  0.64610269    -0.04100
C1193       C  0.39641185  0.99356234  0.39780333    -0.11500
C1194       C  0.36886728  0.97876401  0.40275964     0.04000
C1195       C  0.34704154  0.97808206  0.38028462    -0.12000
C1196       C  0.35182607  0.99201669  0.35273580     0.18800
C1197       C  0.37902455  0.00699590  0.34779939    -0.09100
C1198       C  0.40104713  0.00749635  0.37007472    -0.02000
H1199       H  0.32612759  0.96664486  0.38434275     0.05400
C1200       C  0.32783096  0.99183665  0.32978937     0.20800
H1201       H  0.42179013  0.01915101  0.36577669     0.10500
C1202       C  0.31162209  0.01803246  0.32462887    -0.15400
C1203       C  0.28977066  0.01939198  0.30231759     0.03500
C1204       C  0.28411144  0.99437102  0.28414764    -0.10700
C1205       C  0.29991957  0.96790352  0.28969279    -0.00800
C1206       C  0.32127339  0.96633497  0.31264345    -0.05900
H1207       H  0.31622452  0.03765710  0.33790869     0.06500
H1208       H  0.29537542  0.94837854  0.27626999     0.09900
Br1209     Br  0.38714074  0.02677166  0.31072716    -0.05600
Br1210     Br  0.35988272  0.95773442  0.43900281    -0.02600
Br1211     Br  0.26945470  0.05649537  0.29686415     0.00300
Br1212     Br  0.34103946  0.92910347  0.31972954    -0.04100
C1213       C  0.59785266  0.00134650  0.59718310    -0.11500
C1214       C  0.62411227  0.98383548  0.59590730     0.04000
C1215       C  0.64500057  0.98514148  0.61914932    -0.12000
C1216       C  0.64048613  0.00368802  0.64391061     0.18800
C1217       C  0.61453734  0.02145607  0.64515509    -0.09100
C1218       C  0.59341421  0.01997314  0.62207669    -0.02000
H1219       H  0.66496531  0.97151383  0.61794155     0.05400
C1220       C  0.66368125  0.00468144  0.66757934     0.20800
H1221       H  0.57350267  0.03365803  0.62349136     0.10500
C1222       C  0.68160406  0.03009514  0.67030895    -0.15400
C1223       C  0.70487410  0.03122031  0.69115239     0.03500
C1224       C  0.71063423  0.00658828  0.70980250    -0.10700
C1225       C  0.69241427  0.98130678  0.70740200    -0.00800
C1226       C  0.66920274  0.98012287  0.68638494    -0.05900
H1227       H  0.67751198  0.04913223  0.65605303     0.06500
H1228       H  0.69643081  0.96241374  0.72184689     0.09900
Br1229     Br  0.60669476  0.04758543  0.67815466    -0.05600
Br1230     Br  0.63214547  0.95633601  0.56407999    -0.02600
Br1231     Br  0.72665134  0.06773658  0.69463693     0.00300
Br1232     Br  0.64523481  0.94480718  0.68449599    -0.04100
C1233       C  0.39781330  0.00014192  0.59626509    -0.11500
C1234       C  0.37140335  0.01723200  0.59326354     0.04000
C1235       C  0.34996551  0.01710816  0.61604901    -0.12000
C1236       C  0.35394773  0.99990156  0.64184628     0.18800
C1237       C  0.37983958  0.98219421  0.64451252    -0.09100
C1238       C  0.40161833  0.98274128  0.62204722    -0.02000
H1239       H  0.33002013  0.03060823  0.61367739     0.05400
C1240       C  0.33076572  0.00083348  0.66555057     0.20800
H1241       H  0.42148369  0.96915138  0.62457267     0.10500
C1242       C  0.31285330  0.97573382  0.67067734    -0.15400
C1243       C  0.29037973  0.97618783  0.69246587     0.03500
C1244       C  0.28535527  0.00211163  0.70942319    -0.10700
C1245       C  0.30330641  0.02716614  0.70435856    -0.00800
C1246       C  0.32578451  0.02675717  0.68260435    -0.05900
H1247       H  0.31647254  0.95567227  0.65774277     0.06500
H1248       H  0.29978912  0.04708858  0.71751347     0.09900
Br1249     Br  0.38678055  0.95725763  0.67854875    -0.05600
Br1250     Br  0.36369169  0.04227290  0.55937265    -0.02600
Br1251     Br  0.26845437  0.94038213  0.69940967     0.00300
Br1252     Br  0.34970252  0.06181479  0.67763913    -0.04100
C1253       C  0.70004166  0.98787090  0.21957926    -0.11500
C1254       C  0.69563268  0.01397270  0.20275138     0.04000
C1255       C  0.67188788  0.01569497  0.18270643    -0.12000
C1256       C  0.65229514  0.99169503  0.17908255     0.18800
C1257       C  0.65530983  0.96646227  0.19751462    -0.09100
C1258       C  0.67903123  0.96481454  0.21782080    -0.02000
H1259       H  0.66967107  0.03521656  0.16869376     0.05400
C1260       C  0.63136129  0.99225124  0.15367009     0.20800
H1261       H  0.68230932  0.94463406  0.23063384     0.10500
C1262       C  0.63573143  0.97209440  0.13011682    -0.15400
C1263       C  0.61761430  0.97297671  0.10474430     0.03500
C1264       C  0.59501813  0.99471276  0.10250799    -0.10700
C1265       C  0.59065109  0.01483774  0.12610133    -0.00800
C1266       C  0.60868660  0.01385616  0.15149923    -0.05900
H1267       H  0.65330755  0.95554007  0.13154383     0.06500
H1268       H  0.57297492  0.03130517  0.12481953     0.09900
Br1269     Br  0.62860763  0.93319441  0.19447985    -0.05600
Br1270     Br  0.72227593  0.04730309  0.20511598    -0.02600
Br1271     Br  0.62315475  0.94257111  0.07513513     0.00300
Br1272     Br  0.60094216  0.04185249  0.18294125    -0.04100
C1273       C  0.71203584  0.97610652  0.28643251    -0.11500
C1274       C  0.70653530  0.95171080  0.30551328     0.04000
C1275       C  0.68412659  0.95366891  0.32735343    -0.12000
C1276       C  0.66704723  0.97969317  0.33060701     0.18800
C1277       C  0.67285901  0.00413750  0.31190574    -0.09100
C1278       C  0.69509384  0.00217699  0.29006705    -0.02000
H1279       H  0.67984891  0.93476947  0.34172120     0.05400
C1280       C  0.64340857  0.98134414  0.35372193     0.20800
H1281       H  0.69923834  0.02112074  0.27574348     0.10500
C1282       C  0.64869817  0.99790925  0.37966652    -0.15400
C1283       C  0.62636234  0.00170153  0.40121281     0.03500
C1284       C  0.59800399  0.98828736  0.39724289    -0.10700
C1285       C  0.59277982  0.97172744  0.37106501    -0.00800
C1286       C  0.61517485  0.96823438  0.34941955    -0.05900
H1287       H  0.67019085  0.00854670  0.38282874     0.06500
H1288       H  0.57125625  0.96130154  0.36745956     0.09900
Br1289     Br  0.65043501  0.04042629  0.31497985    -0.05600
Br1290     Br  0.72768375  0.91477067  0.30179399    -0.02600
Br1291     Br  0.63560847  0.02733659  0.43432154     0.00300
Br1292     Br  0.60602554  0.94630534  0.31381817    -0.04100
C1293       C  0.28386479  0.79156434  0.49489196    -0.11500
C1294       C  0.28811422  0.81246146  0.47191062     0.04000
C1295       C  0.30896189  0.83519638  0.47558998    -0.12000
C1296       C  0.32619611  0.83687004  0.50158003     0.18800
C1297       C  0.32135735  0.81665796  0.52495802    -0.09100
C1298       C  0.30012091  0.79423673  0.52152661    -0.02000
H1299       H  0.31296121  0.85065779  0.45748013     0.05400
C1300       C  0.35063791  0.85843878  0.50287310     0.20800
H1301       H  0.29743395  0.77782352  0.53902675     0.10500
C1302       C  0.34652247  0.88499568  0.51858152    -0.15400
C1303       C  0.36909244  0.90637149  0.51944000     0.03500
C1304       C  0.39648067  0.90087563  0.50456814    -0.10700
C1305       C  0.40054519  0.87393989  0.48927417    -0.00800
C1306       C  0.37776125  0.85292878  0.48803435    -0.05900
H1307       H  0.32556724  0.88915997  0.52999215     0.06500
H1308       H  0.42119849  0.86957876  0.47739971     0.09900
Br1309     Br  0.34503721  0.81730422  0.56065567    -0.05600
Br1310     Br  0.26935492  0.80886335  0.43370790    -0.02600
Br1311     Br  0.36110853  0.94185303  0.54205135     0.00300
Br1312     Br  0.38450356  0.81738409  0.46525156    -0.04100
C1313       C  0.71605988  0.79119567  0.50220988    -0.11500
C1314       C  0.71638271  0.81475187  0.52297250     0.04000
C1315       C  0.69451631  0.83709275  0.52135968    -0.12000
C1316       C  0.67190033  0.83581954  0.49969380     0.18800
C1317       C  0.67209006  0.81280285  0.47849883    -0.09100
C1318       C  0.69408481  0.79082646  0.47982593    -0.02000
H1319       H  0.69428181  0.85469663  0.53788796     0.05400
C1320       C  0.64731481  0.85768851  0.50012434     0.20800
H1321       H  0.69311698  0.77240765  0.46422882     0.10500
C1322       C  0.64919979  0.88275136  0.48179421    -0.15400
C1323       C  0.62551669  0.90294766  0.48006633     0.03500
C1324       C  0.59939646  0.89839970  0.49729121    -0.10700
C1325       C  0.59740087  0.87292615  0.51530325    -0.00800
C1326       C  0.62111851  0.85261062  0.51676987    -0.05900
H1327       H  0.66896287  0.88624853  0.46826382     0.06500
H1328       H  0.57755900  0.86902810  0.52859702     0.09900
Br1329     Br  0.64131139  0.80928420  0.44886617    -0.05600
Br1330     Br  0.74348532  0.81537982  0.55607265    -0.02600
Br1331     Br  0.62956546  0.93495256  0.45201999     0.00300
Br1332     Br  0.61671303  0.81794450  0.54130436    -0.04100
C1333       C  0.60163750  0.09304631  0.49371556    -0.11500
C1334       C  0.62802931  0.08808957  0.51044275     0.04000
C1335       C  0.65252643  0.10708180  0.50710844    -0.12000
C1336       C  0.65120342  0.13138338  0.48765391     0.18800
C1337       C  0.62474538  0.13686863  0.47153602    -0.09100
C1338       C  0.60023801  0.11773714  0.47458852    -0.02000
H1339       H  0.67245967  0.10334987  0.52033308     0.05400
C1340       C  0.67628218  0.15270643  0.48694167     0.20800
H1341       H  0.58021863  0.12192138  0.46164506     0.10500
C1342       C  0.69588753  0.15334243  0.46245239    -0.15400
C1343       C  0.71717264  0.17608631  0.45970722     0.03500
C1344       C  0.71927728  0.19809494  0.48197627    -0.10700
C1345       C  0.70068352  0.19641906  0.50710784    -0.00800
C1346       C  0.67918619  0.17411749  0.50962123    -0.05900
H1347       H  0.69355890  0.13707440  0.44475544     0.06500
H1348       H  0.70161849  0.21370234  0.52396048     0.09900
Br1349     Br  0.62087511  0.17086633  0.44595862    -0.05600
Br1350     Br  0.63135139  0.05716112  0.53986402    -0.02600
Br1351     Br  0.74019980  0.17833587  0.42370672     0.00300
Br1352     Br  0.65206540  0.17567187  0.54277732    -0.04100
C1353       C  0.39724116  0.09550691  0.49136140    -0.11500
C1354       C  0.37028675  0.08950865  0.47593045     0.04000
C1355       C  0.34573105  0.10837434  0.47933555    -0.12000
C1356       C  0.34755910  0.13358503  0.49746489     0.18800
C1357       C  0.37468114  0.14045268  0.51185245    -0.09100
C1358       C  0.39929243  0.12142827  0.50875585    -0.02000
H1359       H  0.32511157  0.10347231  0.46764157     0.05400
C1360       C  0.32130044  0.15314708  0.50031836     0.20800
H1361       H  0.41973337  0.12641986  0.52071156     0.10500
C1362       C  0.30505714  0.15334348  0.52707248    -0.15400
C1363       C  0.28300803  0.17482557  0.53208688     0.03500
C1364       C  0.27725245  0.19647747  0.51020130    -0.10700
C1365       C  0.29191514  0.19481800  0.48258031    -0.00800
C1366       C  0.31364078  0.17307686  0.47739017    -0.05900
H1367       H  0.31060045  0.13770925  0.54462004     0.06500
H1368       H  0.28773084  0.21157122  0.46570465     0.09900
Br1369     Br  0.37903350  0.17570687  0.53566862    -0.05600
Br1370     Br  0.36573194  0.05676062  0.44876270    -0.02600
Br1371     Br  0.26386018  0.17577534  0.57029653     0.00300
Br1372     Br  0.33412863  0.17294650  0.43975432    -0.04100
C1373       C  0.89579873  0.00048818  0.59087066    -0.11500
C1374       C  0.86732858  0.01149753  0.58203255     0.04000
C1375       C  0.84405026  0.01282192  0.60267769    -0.12000
C1376       C  0.84839972  0.00371307  0.63210048     0.18800
C1377       C  0.87653994  0.99310527  0.64117703    -0.09100
C1378       C  0.89998062  0.99155077  0.62062463    -0.02000
H1379       H  0.82244840  0.02139157  0.59585942     0.05400
C1380       C  0.82353271  0.00638252  0.65334148     0.20800
H1381       H  0.92144957  0.98308590  0.62792876     0.10500
C1382       C  0.80669278  0.98112739  0.66047031    -0.15400
C1383       C  0.78520159  0.98223131  0.68311642     0.03500
C1384       C  0.77976528  0.00922691  0.69825813    -0.10700
C1385       C  0.79604264  0.03467479  0.69022201    -0.00800
C1386       C  0.81775321  0.03345572  0.66790329    -0.05900
H1387       H  0.81147029  0.96014522  0.64951804     0.06500
H1388       H  0.79315076  0.05515671  0.70266140     0.09900
Br1389     Br  0.88396444  0.98105069  0.68155551    -0.05600
Br1390     Br  0.85827193  0.02674281  0.54290301    -0.02600
Br1391     Br  0.76736135  0.94543726  0.69527558     0.00300
Br1392     Br  0.84094355  0.06847045  0.65993563    -0.04100
C1393       C  0.10011066  0.99834410  0.59376028    -0.11500
C1394       C  0.09828479  0.01546599  0.62016867     0.04000
C1395       C  0.12283545  0.01674577  0.63955693    -0.12000
C1396       C  0.14952537  0.00175977  0.63283620     0.18800
C1397       C  0.15170451  0.98536922  0.60626248    -0.09100
C1398       C  0.12713587  0.98360782  0.58712018    -0.02000
H1399       H  0.12111760  0.02946725  0.66003492     0.05400
C1400       C  0.17370563  0.00099867  0.65520533     0.20800
H1401       H  0.12924421  0.97061953  0.56684478     0.10500
C1402       C  0.17464894  0.97690948  0.67492483    -0.15400
C1403       C  0.19504811  0.97634705  0.69843994     0.03500
C1404       C  0.21572269  0.99975498  0.70195842    -0.10700
C1405       C  0.21570526  0.02330881  0.68139606    -0.00800
C1406       C  0.19455567  0.02426271  0.65828817    -0.05900
H1407       H  0.15858859  0.95900969  0.67270023     0.06500
H1408       H  0.23093796  0.04179811  0.68438201     0.09900
Br1409     Br  0.18800223  0.96547428  0.59508657    -0.05600
Br1410     Br  0.06396592  0.03921381  0.63008449    -0.02600
Br1411     Br  0.19262719  0.94371657  0.72597913     0.00300
Br1412     Br  0.19379091  0.05828462  0.63249643    -0.04100
C1413       C  0.21534078  0.00164039  0.29019986    -0.11500
C1414       C  0.19426490  0.02455224  0.29452324     0.04000
C1415       C  0.17391367  0.02259502  0.31793734    -0.12000
C1416       C  0.17392989  0.99779081  0.33680212     0.18800
C1417       C  0.19556308  0.97535518  0.33313516    -0.09100
C1418       C  0.21634527  0.97754736  0.31000705    -0.02000
H1419       H  0.15728909  0.03992670  0.32080004     0.05400
C1420       C  0.14994549  0.99504144  0.35891058     0.20800
H1421       H  0.23211861  0.95958063  0.30642322     0.10500
C1422       C  0.12606742  0.97571080  0.35310457    -0.15400
C1423       C  0.10184229  0.97397315  0.37270255     0.03500
C1424       C  0.10153127  0.99182907  0.39858600    -0.10700
C1425       C  0.12580183  0.01080792  0.40446278    -0.00800
C1426       C  0.14978498  0.01268727  0.38473202    -0.05900
H1427       H  0.12621545  0.96212743  0.33311436     0.06500
H1428       H  0.12589666  0.02463822  0.42428645     0.09900
Br1429     Br  0.19664585  0.94091494  0.35836961    -0.05600
Br1430     Br  0.19171825  0.05844420  0.26849202    -0.02600
Br1431     Br  0.07075913  0.94594890  0.36364366     0.00300
Br1432     Br  0.18182112  0.03959261  0.39381002    -0.04100
C1433       C  0.78110064  0.96493276  0.29270787    -0.11500
C1434       C  0.80422247  0.94353868  0.29409865     0.04000
C1435       C  0.82523367  0.94480773  0.31706567    -0.12000
C1436       C  0.82315628  0.96666378  0.33919517     0.18800
C1437       C  0.79848573  0.98610467  0.33956111    -0.09100
C1438       C  0.77776619  0.98532919  0.31620641    -0.02000
H1439       H  0.84383640  0.92933577  0.31712620     0.05400
C1440       C  0.84862441  0.97096029  0.35948960     0.20800
H1441       H  0.76018631  0.00189103  0.31553442     0.10500
C1442       C  0.87325346  0.98745935  0.34942050    -0.15400
C1443       C  0.89791631  0.99246040  0.36794144     0.03500
C1444       C  0.89809652  0.98060145  0.39705161    -0.10700
C1445       C  0.87347294  0.96366084  0.40677432    -0.00800
C1446       C  0.84885685  0.95887285  0.38832016    -0.05900
H1447       H  0.87303470  0.99687859  0.32716879     0.06500
H1448       H  0.87328737  0.95410790  0.42897332     0.09900
Br1449     Br  0.79343227  0.01527423  0.37041160    -0.05600
Br1450     Br  0.80827264  0.91220055  0.26518464    -0.02600
Br1451     Br  0.92943503  0.01723184  0.35294449     0.00300
Br1452     Br  0.81605992  0.93598829  0.40351940    -0.04100
C1453       C  0.10000524  0.89362500  0.49721832    -0.11500
C1454       C  0.09739011  0.86549043  0.51123775     0.04000
C1455       C  0.12095287  0.84486946  0.50945080    -0.12000
C1456       C  0.14756206  0.85179190  0.49442997     0.18800
C1457       C  0.15064360  0.88006112  0.48135703    -0.09100
C1458       C  0.12700941  0.90049665  0.48260655    -0.02000
H1459       H  0.11862790  0.82334909  0.52008482     0.05400
C1460       C  0.17162323  0.82908295  0.49230637     0.20800
H1461       H  0.12981935  0.92194690  0.47195888     0.10500
C1462       C  0.17461651  0.81236302  0.46601259    -0.15400
C1463       C  0.19618379  0.78980856  0.46367321     0.03500
C1464       C  0.21547401  0.78383925  0.48783632    -0.10700
C1465       C  0.21312924  0.80131648  0.51374263    -0.00800
C1466       C  0.19113418  0.82342530  0.51630294    -0.05900
H1467       H  0.15994467  0.81676288  0.44729345     0.06500
H1468       H  0.22797361  0.79709919  0.53235666     0.09900
Br1469     Br  0.18713904  0.89217759  0.46251716    -0.05600
Br1470     Br  0.06344518  0.85446827  0.53500178    -0.02600
Br1471     Br  0.19941650  0.76900076  0.42646491     0.00300
Br1472     Br  0.18828125  0.84515928  0.55302287    -0.04100
C1473       C  0.89853929  0.89438388  0.49884425    -0.11500
C1474       C  0.87303879  0.89667574  0.51737234     0.04000
C1475       C  0.85183944  0.87372192  0.51769511    -0.12000
C1476       C  0.85519034  0.84853155  0.49947025     0.18800
C1477       C  0.88026743  0.84649761  0.48058211    -0.09100
C1478       C  0.90182786  0.86907038  0.48070153    -0.02000
H1479       H  0.83257507  0.87551594  0.53224933     0.05400
C1480       C  0.83219665  0.82477055  0.50047494     0.20800
H1481       H  0.92107469  0.86704218  0.46615479     0.10500
C1482       C  0.81189932  0.82173528  0.47676819    -0.15400
C1483       C  0.78916624  0.80024658  0.47763343     0.03500
C1484       C  0.78641102  0.78141511  0.50266281    -0.10700
C1485       C  0.80725241  0.78405376  0.52595052    -0.00800
C1486       C  0.82983203  0.80553584  0.52514353    -0.05900
H1487       H  0.81373781  0.83621650  0.45753967     0.06500
H1488       H  0.80549705  0.76961738  0.54520058     0.09900
Br1489     Br  0.88614360  0.81326498  0.45435377    -0.05600
Br1490     Br  0.86650658  0.92974691  0.54377893    -0.02600
Br1491     Br  0.76374619  0.79664473  0.44345959     0.00300
Br1492     Br  0.85708432  0.80750342  0.55813427    -0.04100
C1493       C  0.89840021  0.09319409  0.48976507    -0.11500
C1494       C  0.90161311  0.12044901  0.50534105     0.04000
C1495       C  0.87911408  0.14217185  0.50379135    -0.12000
C1496       C  0.85305386  0.13741121  0.48712709     0.18800
C1497       C  0.84947312  0.11019456  0.47196588    -0.09100
C1498       C  0.87193414  0.08836153  0.47343228    -0.02000
H1499       H  0.88192634  0.16294124  0.51575497     0.05400
C1500       C  0.83033556  0.16149402  0.48513054     0.20800
H1501       H  0.86882900  0.06765446  0.46143861     0.10500
C1502       C  0.83124096  0.18122871  0.46093622    -0.15400
C1503       C  0.81035796  0.20437486  0.45826113     0.03500
C1504       C  0.78805860  0.20832915  0.48022748    -0.10700
C1505       C  0.78708699  0.18833138  0.50435698    -0.00800
C1506       C  0.80801348  0.16517877  0.50698861    -0.05900
H1507       H  0.84808838  0.17834085  0.44380433     0.06500
H1508       H  0.76997205  0.19084247  0.52126015     0.09900
Br1509     Br  0.81413379  0.10202664  0.44914379    -0.05600
Br1510     Br  0.93518362  0.12882247  0.53072976    -0.02600
Br1511     Br  0.81183830  0.22806760  0.42277979     0.00300
Br1512     Br  0.80501756  0.13874462  0.54042106    -0.04100
C1513       C  0.20929878  0.20682693  0.51805349    -0.11500
C1514       C  0.19039202  0.19890204  0.54198459     0.04000
C1515       C  0.16927775  0.17615259  0.53841942    -0.12000
C1516       C  0.16668292  0.16080518  0.51130522     0.18800
C1517       C  0.18557012  0.16856432  0.48741750    -0.09100
C1518       C  0.20665035  0.19138665  0.49091251    -0.02000
H1519       H  0.15499790  0.17017483  0.55699388     0.05400
C1520       C  0.14366929  0.13725941  0.50814260     0.20800
H1521       H  0.22119037  0.19705911  0.47246075     0.10500
C1522       C  0.11525361  0.14499531  0.49765382    -0.15400
C1523       C  0.09281111  0.12354877  0.49405835     0.03500
C1524       C  0.09858402  0.09325381  0.50117777    -0.10700
C1525       C  0.12730220  0.08575982  0.51190307    -0.00800
C1526       C  0.14963717  0.10740240  0.51540033    -0.05900
H1527       H  0.11056859  0.16797026  0.49198327     0.06500
H1528       H  0.13247271  0.06296987  0.51784762     0.09900
Br1529     Br  0.18356753  0.14811776  0.44990080    -0.05600
Br1530     Br  0.19384636  0.21679372  0.58063762    -0.02600
Br1531     Br  0.05550807  0.13778848  0.47815779     0.00300
Br1532     Br  0.18809365  0.09532226  0.53001236    -0.04100
C1533       C  0.97566152  0.69591684  0.21326640    -0.11500
C1534       C  0.95195412  0.69188465  0.19286200     0.04000
C1535       C  0.95288065  0.66857738  0.17217040    -0.12000
C1536       C  0.97736823  0.64917475  0.17113504     0.18800
C1537       C  0.00028970  0.65208914  0.19250298    -0.09100
C1538       C  0.99924780  0.67525792  0.21351583    -0.02000
H1539       H  0.93514988  0.66650027  0.15583407     0.05400
C1540       C  0.98048642  0.62868004  0.14542223     0.20800
H1541       H  0.01782793  0.67825334  0.22871071     0.10500
C1542       C  0.99975558  0.63665002  0.12205169    -0.15400
C1543       C  0.00369505  0.61809858  0.09721505     0.03500
C1544       C  0.98839011  0.59069016  0.09565665    -0.10700
C1545       C  0.96874940  0.58301272  0.11900341    -0.00800
C1546       C  0.96446319  0.60185626  0.14353212    -0.05900
H1547       H  0.01195379  0.65743215  0.12326337     0.06500
H1548       H  0.95651348  0.56222888  0.11811439     0.09900
Br1549     Br  0.03418057  0.62587423  0.19241192    -0.05600
Br1550     Br  0.91836454  0.71849741  0.19141857    -0.02600
Br1551     Br  0.03147247  0.63081292  0.06721572     0.00300
Br1552     Br  0.93687706  0.58985369  0.17399498    -0.04100
C1553       C  0.99129493  0.77190604  0.29371434    -0.11500
C1554       C  0.01783937  0.78790662  0.29889557     0.04000
C1555       C  0.01944922  0.80814089  0.32253318    -0.12000
C1556       C  0.99477151  0.81289319  0.34117401     0.18800
C1557       C  0.96889882  0.79546839  0.33733738    -0.09100
C1558       C  0.96732610  0.77501660  0.31370679    -0.02000
H1559       H  0.03950738  0.82131231  0.32547096     0.05400
C1560       C  0.99541084  0.83835458  0.36206877     0.20800
H1561       H  0.94673869  0.76294130  0.30984184     0.10500
C1562       C  0.98012307  0.86452683  0.35435560    -0.15400
C1563       C  0.98114009  0.88970527  0.37276057     0.03500
C1564       C  0.99812176  0.88900522  0.39933751    -0.10700
C1565       C  0.01337003  0.86265325  0.40691715    -0.00800
C1566       C  0.01204757  0.83748308  0.38863139    -0.05900
H1567       H  0.96715892  0.86526694  0.33394366     0.06500
H1568       H  0.02626732  0.86152229  0.42735345     0.09900
Br1569     Br  0.93491360  0.80009625  0.36305753    -0.05600
Br1570     Br  0.05196117  0.78392586  0.27329614    -0.02600
Br1571     Br  0.95707697  0.92325432  0.36137481     0.00300
Br1572     Br  0.03226670  0.80208236  0.40143215    -0.04100
C1573       C  0.00039435  0.39601468  0.89123294    -0.11500
C1574       C  0.01410359  0.36781761  0.89423056     0.04000
C1575       C  0.01496562  0.34840021  0.86984655    -0.12000
C1576       C  0.00262364  0.35652528  0.84228852     0.18800
C1577       C  0.98882115  0.38439199  0.83915430    -0.09100
C1578       C  0.98789800  0.40392413  0.86343892    -0.02000
H1579       H  0.02546902  0.32679985  0.87232576     0.05400
C1580       C  0.00273782  0.33461808  0.81781620     0.20800
H1581       H  0.97711347  0.42533817  0.86059364     0.10500
C1582       C  0.98242568  0.31105831  0.81921664    -0.15400
C1583       C  0.98379827  0.28780289  0.79868354     0.03500
C1584       C  0.00575117  0.28797586  0.77605331    -0.10700
C1585       C  0.02518170  0.31235108  0.77370948    -0.00800
C1586       C  0.02389706  0.33559972  0.79454802    -0.05900
H1587       H  0.96600300  0.31032052  0.83698245     0.06500
H1588       H  0.04248078  0.31246775  0.75679612     0.09900
Br1589     Br  0.97033228  0.39615885  0.80235216    -0.05600
Br1590     Br  0.03365676  0.35490585  0.93014319    -0.02600
Br1591     Br  0.95553765  0.25597110  0.80321679     0.00300
Br1592     Br  0.05267960  0.36707071  0.79175381    -0.04100
C1593       C  0.01837199  0.21467914  0.69328161    -0.11500
C1594       C  0.04221542  0.19630972  0.68412309     0.04000
C1595       C  0.03814835  0.17615290  0.66076571    -0.12000
C1596       C  0.01030202  0.17344566  0.64675293     0.18800
C1597       C  0.98684708  0.19273556  0.65488023    -0.09100
C1598       C  0.99114118  0.21349992  0.67779652    -0.02000
H1599       H  0.05629098  0.16137431  0.65459921     0.05400
C1600       C  0.00564381  0.14848970  0.62587726     0.20800
H1601       H  0.97248296  0.22708973  0.68505531     0.10500
C1602       C  0.98975192  0.12335403  0.63556712    -0.15400
C1603       C  0.98682160  0.09824551  0.61724454     0.03500
C1604       C  0.00018419  0.09812503  0.58870025    -0.10700
C1605       C  0.01572895  0.12359609  0.57907798    -0.00800
C1606       C  0.01859120  0.14852667  0.59735488    -0.05900
H1607       H  0.97978990  0.12322386  0.65760730     0.06500
H1608       H  0.02616761  0.12404014  0.55725741     0.09900
Br1609     Br  0.94817909  0.19009532  0.63660151    -0.05600
Br1610     Br  0.08012371  0.19650865  0.70416341    -0.02600
Br1611     Br  0.96321016  0.06572635  0.63192235     0.00300
Br1612     Br  0.04029562  0.18208814  0.58226461    -0.04100
C1613       C  0.00371508  0.69396412  0.77389226    -0.11500
C1614       C  0.03084714  0.68827167  0.78864815     0.04000
C1615       C  0.03229873  0.66607682  0.81038304    -0.12000
C1616       C  0.00703544  0.64891686  0.81717749     0.18800
C1617       C  0.98064389  0.65282732  0.80034204    -0.09100
C1618       C  0.97910026  0.67544545  0.77897284    -0.02000
H1619       H  0.05273275  0.66325302  0.82304174     0.05400
C1620       C  0.00750572  0.62935314  0.84368241     0.20800
H1621       H  0.95809972  0.67982505  0.76774518     0.10500
C1622       C  0.98713357  0.63496812  0.86690650    -0.15400
C1623       C  0.98521862  0.61600579  0.89149941     0.03500
C1624       C  0.00461406  0.59141302  0.89350293    -0.10700
C1625       C  0.02584812  0.58652289  0.87094321    -0.00800
C1626       C  0.02753540  0.60528496  0.84620609    -0.05900
H1627       H  0.97195726  0.65371975  0.86539577     0.06500
H1628       H  0.04095620  0.56769753  0.87237802     0.09900
Br1629     Br  0.94577946  0.62870758  0.80668923    -0.05600
Br1630     Br  0.06579530  0.71178832  0.78111559    -0.02600
Br1631     Br  0.95377578  0.62300242  0.91985823     0.00300
Br1632     Br  0.05664088  0.59606826  0.81610556    -0.04100
C1633       C  0.99091281  0.77647077  0.70065141    -0.11500
C1634       C  0.01690015  0.78199869  0.68380983     0.04000
C1635       C  0.01687585  0.80465872  0.66238560    -0.12000
C1636       C  0.99143460  0.82242166  0.65804247     0.18800
C1637       C  0.96532661  0.81653120  0.67447393    -0.09100
C1638       C  0.96524389  0.79369397  0.69555246    -0.02000
H1639       H  0.03710565  0.80925101  0.64992617     0.05400
C1640       C  0.99251442  0.84739647  0.63673810     0.20800
H1641       H  0.94552072  0.79036608  0.70918361     0.10500
C1642       C  0.97662284  0.84501653  0.61001249    -0.15400
C1643       C  0.97631412  0.86834690  0.58951775     0.03500
C1644       C  0.99272006  0.89465497  0.59537438    -0.10700
C1645       C  0.00816309  0.89722159  0.62254101    -0.00800
C1646       C  0.00810437  0.87383813  0.64320230    -0.05900
H1647       H  0.96402731  0.82497431  0.60527683     0.06500
H1648       H  0.02070528  0.91722774  0.62751094     0.09900
Br1649     Br  0.93021963  0.84086998  0.67087769    -0.05600
Br1650     Br  0.05394162  0.76206618  0.69191892    -0.02600
Br1651     Br  0.95135193  0.86321928  0.55502563     0.00300
Br1652     Br  0.02882549  0.87920944  0.68028073    -0.04100
C1653       C  0.09982235  0.59686743  0.48520288    -0.11500
C1654       C  0.09389100  0.62168204  0.46667031     0.04000
C1655       C  0.11391756  0.64538069  0.46557579    -0.12000
C1656       C  0.14009004  0.64493264  0.48249197     0.18800
C1657       C  0.14651595  0.62009234  0.50056634    -0.09100
C1658       C  0.12649166  0.59620780  0.50168280    -0.02000
H1659       H  0.10913177  0.66427496  0.45132574     0.05400
C1660       C  0.16066884  0.67038730  0.48057367     0.20800
H1661       H  0.13143456  0.57742186  0.51600365     0.10500
C1662       C  0.16321487  0.68984251  0.50489742    -0.15400
C1663       C  0.18502786  0.71209878  0.50515420     0.03500
C1664       C  0.20459697  0.71496551  0.48068282    -0.10700
C1665       C  0.20060658  0.69668922  0.45559370    -0.00800
C1666       C  0.17859639  0.67476538  0.45520025    -0.05900
H1667       H  0.14905676  0.68681208  0.52427522     0.06500
H1668       H  0.21577290  0.69847219  0.43681783     0.09900
Br1669     Br  0.18241849  0.61777381  0.52386106    -0.05600
Br1670     Br  0.05980947  0.62435915  0.44099032    -0.02600
Br1671     Br  0.18912482  0.73526461  0.54081643     0.00300
Br1672     Br  0.17539794  0.64997854  0.42044871    -0.04100
C1673       C  0.90432659  0.39384205  0.49085662    -0.11500
C1674       C  0.91186922  0.36598049  0.47785381     0.04000
C1675       C  0.89061745  0.34334224  0.47627357    -0.12000
C1676       C  0.86178819  0.34754790  0.48736707     0.18800
C1677       C  0.85408054  0.37488977  0.50061637    -0.09100
C1678       C  0.87522588  0.39784683  0.50214978    -0.02000
H1679       H  0.89644264  0.32239308  0.46575917     0.05400
C1680       C  0.83966621  0.32363916  0.48311124     0.20800
H1681       H  0.86893194  0.41878217  0.51238891     0.10500
C1682       C  0.83477976  0.30281042  0.50585106    -0.15400
C1683       C  0.81305161  0.28059274  0.50264794     0.03500
C1684       C  0.79631713  0.27871028  0.47603849    -0.10700
C1685       C  0.80201067  0.29919695  0.45302616    -0.00800
C1686       C  0.82348385  0.32146547  0.45635326    -0.05900
H1687       H  0.84717488  0.30452176  0.52654704     0.06500
H1688       H  0.78874793  0.29860249  0.43279759     0.09900
Br1689     Br  0.81484327  0.38172727  0.51648468    -0.05600
Br1690     Br  0.94992421  0.35713213  0.45996493    -0.02600
Br1691     Br  0.80475618  0.25612740  0.53663051     0.00300
Br1692     Br  0.82890051  0.34952324  0.42452114    -0.04100
C1693       C  0.10026131  0.39501356  0.50739063    -0.11500
C1694       C  0.12818483  0.39299570  0.49292194     0.04000
C1695       C  0.14637669  0.36807409  0.49776736    -0.12000
C1696       C  0.13761560  0.34550059  0.51756218     0.18800
C1697       C  0.11064040  0.34837629  0.53333791    -0.09100
C1698       C  0.09197752  0.37264843  0.52773945    -0.02000
H1699       H  0.16754810  0.36631078  0.48614510     0.05400
C1700       C  0.15756150  0.31975770  0.52221301     0.20800
H1701       H  0.07092506  0.37421249  0.53962305     0.10500
C1702       C  0.17395010  0.31793165  0.54874774    -0.15400
C1703       C  0.19587021  0.29612121  0.55240850     0.03500
C1704       C  0.20152050  0.27552202  0.52929577    -0.10700
C1705       C  0.18377353  0.27618248  0.50349684    -0.00800
C1706       C  0.16193090  0.29820638  0.49979230    -0.05900
H1707       H  0.17050833  0.33430804  0.56617771     0.06500
H1708       H  0.18820773  0.26081147  0.48538817     0.09900
Br1709     Br  0.09838059  0.31978855  0.56268124    -0.05600
Br1710     Br  0.14222297  0.42282351  0.46571143    -0.02600
Br1711     Br  0.21833656  0.29633127  0.58892163     0.00300
Br1712     Br  0.13932653  0.29879563  0.46341350    -0.04100
C1713       C  0.90429727  0.59781959  0.50057688    -0.11500
C1714       C  0.91278130  0.62615203  0.51187459     0.04000
C1715       C  0.89223585  0.64957989  0.51228439    -0.12000
C1716       C  0.86274654  0.64537338  0.50296575     0.18800
C1717       C  0.85373766  0.61705909  0.49291360    -0.09100
C1718       C  0.87448409  0.59367839  0.49149694    -0.02000
H1719       H  0.89909604  0.67112528  0.52072173     0.05400
C1720       C  0.84133456  0.67040299  0.50518833     0.20800
H1721       H  0.86722406  0.57221325  0.48323960     0.10500
C1722       C  0.82905908  0.68252759  0.47906148    -0.15400
C1723       C  0.80628504  0.70382668  0.48060154     0.03500
C1724       C  0.79589420  0.71361707  0.50855201    -0.10700
C1725       C  0.80914982  0.70262747  0.53463823    -0.00800
C1726       C  0.83185437  0.68126102  0.53315587    -0.05900
H1727       H  0.83626569  0.67438327  0.45746303     0.06500
H1728       H  0.80075213  0.70957656  0.55623063     0.09900
Br1729     Br  0.81295049  0.60899722  0.48239843    -0.05600
Br1730     Br  0.95099868  0.63444972  0.52967215    -0.02600
Br1731     Br  0.78765705  0.71639675  0.44419171     0.00300
Br1732     Br  0.84721482  0.66561331  0.56993047    -0.04100
C1733       C  0.10089742  0.49444493  0.39343886    -0.11500
C1734       C  0.13139105  0.50188342  0.39757526     0.04000
C1735       C  0.15109284  0.50050484  0.37337494    -0.12000
C1736       C  0.14099856  0.49249445  0.34490556     0.18800
C1737       C  0.11079769  0.48553758  0.34051702    -0.09100
C1738       C  0.09112280  0.48640904  0.36461535    -0.02000
H1739       H  0.17441056  0.50614216  0.37665255     0.05400
C1740       C  0.16252463  0.49122152  0.32015591     0.20800
H1741       H  0.06798919  0.48064809  0.36063069     0.10500
C1742       C  0.18224245  0.46709706  0.31858278    -0.15400
C1743       C  0.20478894  0.46637997  0.29710813     0.03500
C1744       C  0.20749303  0.48996083  0.27647672    -0.10700
C1745       C  0.18681939  0.51341622  0.27720006    -0.00800
C1746       C  0.16466092  0.51440118  0.29918260    -0.05900
H1747       H  0.18061025  0.44920338  0.33469890     0.06500
H1748       H  0.18922133  0.53202103  0.26203180     0.09900
Br1749     Br  0.09553980  0.47449574  0.30204678    -0.05600
Br1750     Br  0.14774507  0.51573258  0.43474358    -0.02600
Br1751     Br  0.23166727  0.43298849  0.29751170     0.00300
Br1752     Br  0.13971269  0.54905736  0.30165852    -0.04100
C1753       C  0.90320951  0.49928969  0.39245228    -0.11500
C1754       C  0.90763084  0.48388960  0.36524207     0.04000
C1755       C  0.88913578  0.48949283  0.34068233    -0.12000
C1756       C  0.86569218  0.51001858  0.34265190     0.18800
C1757       C  0.85993416  0.52405690  0.37020820    -0.09100
C1758       C  0.87872224  0.51882235  0.39476768    -0.02000
H1759       H  0.89296499  0.47764638  0.31995825     0.05400
C1760       C  0.84615653  0.51508094  0.31641761     0.20800
H1761       H  0.87456960  0.53058001  0.41547152     0.10500
C1762       C  0.82556672  0.49298610  0.30838976    -0.15400
C1763       C  0.80358282  0.49864967  0.28693527     0.03500
C1764       C  0.80220698  0.52663010  0.27291807    -0.10700
C1765       C  0.82406492  0.54800827  0.27933810    -0.00800
C1766       C  0.84609848  0.54236368  0.30084989    -0.05900
H1767       H  0.82552561  0.47188782  0.32007281     0.06500
H1768       H  0.82299845  0.56969005  0.26884659     0.09900
Br1769     Br  0.82612639  0.54992894  0.37528116    -0.05600
Br1770     Br  0.93720502  0.45337811  0.36074985    -0.02600
Br1771     Br  0.77396238  0.46867256  0.27962566     0.00300
Br1772     Br  0.87456298  0.57308549  0.30946102    -0.04100
C1773       C  0.10036292  0.50340848  0.59615467    -0.11500
C1774       C  0.12487719  0.48388464  0.59871942     0.04000
C1775       C  0.14321154  0.48519253  0.62402867    -0.12000
C1776       C  0.13805991  0.50632010  0.64660356     0.18800
C1777       C  0.11459647  0.52695695  0.64315840    -0.09100
C1778       C  0.09560114  0.52493450  0.61843485    -0.02000
H1779       H  0.16171416  0.46974409  0.62606053     0.05400
C1780       C  0.15851692  0.50732036  0.67259758     0.20800
H1781       H  0.07706445  0.54036936  0.61650003     0.10500
C1782       C  0.17797429  0.53154896  0.67568723    -0.15400
C1783       C  0.20042894  0.53133066  0.69734839     0.03500
C1784       C  0.20428162  0.50617160  0.71573621    -0.10700
C1785       C  0.18342510  0.48301154  0.71430924    -0.00800
C1786       C  0.16049347  0.48351889  0.69304702    -0.05900
H1787       H  0.17632691  0.55026055  0.66054044     0.06500
H1788       H  0.18605744  0.46364999  0.72846359     0.09900
Br1789     Br  0.10741343  0.55808304  0.67164031    -0.05600
Br1790     Br  0.13346724  0.45425487  0.56901872    -0.02600
Br1791     Br  0.22555853  0.56574944  0.70077293     0.00300
Br1792     Br  0.13290089  0.45092978  0.69242403    -0.04100
C1793       C  0.90399239  0.49346719  0.59614936    -0.11500
C1794       C  0.90955752  0.47879794  0.62360246     0.04000
C1795       C  0.88796747  0.47933244  0.64619018    -0.12000
C1796       C  0.86080293  0.49422963  0.64205088     0.18800
C1797       C  0.85496595  0.50838373  0.61468639    -0.09100
C1798       C  0.87641184  0.50785265  0.59200296    -0.02000
H1799       H  0.89236140  0.46806714  0.66711206     0.05400
C1800       C  0.83873604  0.49493091  0.66649320     0.20800
H1801       H  0.87166388  0.51917750  0.57120031     0.10500
C1802       C  0.83525689  0.52111286  0.68324215    -0.15400
C1803       C  0.81256444  0.52349598  0.70459572     0.03500
C1804       C  0.79366297  0.49912437  0.70998158    -0.10700
C1805       C  0.79765935  0.47271243  0.69379048    -0.00800
C1806       C  0.81983873  0.47053786  0.67197219    -0.05900
H1807       H  0.84931443  0.54018337  0.67865440     0.06500
H1808       H  0.78239811  0.45428690  0.69703973     0.09900
Br1809     Br  0.81781199  0.52840285  0.60726372    -0.05600
Br1810     Br  0.94528746  0.45631833  0.63142231    -0.02600
Br1811     Br  0.80570379  0.56142770  0.72303460     0.00300
Br1812     Br  0.82144876  0.43505336  0.64820822    -0.04100
C1813       C  0.98719422  0.70436017  0.28161928    -0.11500
C1814       C  0.96308891  0.68699209  0.29173840     0.04000
C1815       C  0.96783675  0.66527143  0.31357183    -0.12000
C1816       C  0.99640578  0.66068229  0.32561589     0.18800
C1817       C  0.02053636  0.67788718  0.31540729    -0.09100
C1818       C  0.01576764  0.69966972  0.29363733    -0.02000
H1819       H  0.94913378  0.65217866  0.32151182     0.05400
C1820       C  0.00035482  0.63831869  0.34934271     0.20800
H1821       H  0.03433391  0.71310051  0.28602226     0.10500
C1822       C  0.01384870  0.61098567  0.34261461    -0.15400
C1823       C  0.01672931  0.58887040  0.36441642     0.03500
C1824       C  0.00461232  0.59356255  0.39325910    -0.10700
C1825       C  0.99226279  0.62158819  0.40005385    -0.00800
C1826       C  0.99061254  0.64399032  0.37858316    -0.05900
H1827       H  0.02243687  0.60699126  0.32035609     0.06500
H1828       H  0.98371330  0.62619168  0.42219951     0.09900
Br1829     Br  0.06001712  0.67279083  0.33130666    -0.05600
Br1830     Br  0.92314846  0.69337729  0.27780786    -0.02600
Br1831     Br  0.03944875  0.55413179  0.35374703     0.00300
Br1832     Br  0.97599597  0.68237619  0.39046020    -0.04100
C1833       C  0.00816744  0.39737994  0.59610676    -0.11500
C1834       C  0.01705574  0.40384903  0.62591053     0.04000
C1835       C  0.01739409  0.38121816  0.64755416    -0.12000
C1836       C  0.01003351  0.35180424  0.64021149     0.18800
C1837       C  0.00257262  0.34501589  0.61049964    -0.09100
C1838       C  0.00133741  0.36759503  0.58896715    -0.02000
H1839       H  0.02400346  0.38649347  0.67020773     0.05400
C1840       C  0.01100128  0.32827453  0.66355197     0.20800
H1841       H  0.99501874  0.36163214  0.56641887     0.10500
C1842       C  0.98486515  0.32086212  0.67929434    -0.15400
C1843       C  0.98502976  0.29810939  0.70080697     0.03500
C1844       C  0.01153848  0.28221058  0.70664106    -0.10700
C1845       C  0.03758363  0.28962415  0.69089538    -0.00800
C1846       C  0.03757699  0.31262859  0.66979297    -0.05900
H1847       H  0.96424837  0.33264840  0.67464797     0.06500
H1848       H  0.05808589  0.27758388  0.69535554     0.09900
Br1849     Br  0.99479152  0.30492370  0.59810738    -0.05600
Br1850     Br  0.03113580  0.44223159  0.63873158    -0.02600
Br1851     Br  0.94841950  0.28843173  0.72067567     0.00300
Br1852     Br  0.07441226  0.32208746  0.65015541    -0.04100
C1853       C  0.00177898  0.59642328  0.59235681    -0.11500
C1854       C  0.01885013  0.62274267  0.58971862     0.04000
C1855       C  0.01869816  0.64367029  0.61289598    -0.12000
C1856       C  0.00147578  0.63916072  0.63865870     0.18800
C1857       C  0.98395318  0.61321943  0.64099045    -0.09100
C1858       C  0.98449857  0.59204113  0.61814299    -0.02000
H1859       H  0.03193846  0.66372367  0.61073603     0.05400
C1860       C  0.00092896  0.66242258  0.66212608     0.20800
H1861       H  0.97102718  0.57214264  0.62041371     0.10500
C1862       C  0.97455694  0.67871231  0.66665510    -0.15400
C1863       C  0.97296200  0.70081752  0.68859090     0.03500
C1864       C  0.99806853  0.70707332  0.70645871    -0.10700
C1865       C  0.02446983  0.69075604  0.70198706    -0.00800
C1866       C  0.02621748  0.66884570  0.67978176    -0.05900
H1867       H  0.95501658  0.67401178  0.65317463     0.06500
H1868       H  0.04380103  0.69522594  0.71579453     0.09900
Br1869     Br  0.95910534  0.60538967  0.67499381    -0.05600
Br1870     Br  0.04374510  0.63099381  0.55576044    -0.02600
Br1871     Br  0.93541456  0.72038836  0.69457633     0.00300
Br1872     Br  0.06332925  0.64793084  0.67492682    -0.04100
C1873       C  0.01204625  0.28994187  0.21211955    -0.11500
C1874       C  0.03249392  0.29153596  0.18814247     0.04000
C1875       C  0.02941383  0.31360623  0.16647793    -0.12000
C1876       C  0.00629321  0.33447641  0.16827036     0.18800
C1877       C  0.98713052  0.33438746  0.19316973    -0.09100
C1878       C  0.99005362  0.31212662  0.21495427    -0.02000
H1879       H  0.04471297  0.31408012  0.14773142     0.05400
C1880       C  0.00280095  0.35609345  0.14377273     0.20800
H1881       H  0.97396536  0.31105214  0.23298090     0.10500
C1882       C  0.98486176  0.34900246  0.11904239    -0.15400
C1883       C  0.98255271  0.36859257  0.09477614     0.03500
C1884       C  0.99917622  0.39528269  0.09483948    -0.10700
C1885       C  0.01665224  0.40232811  0.11993551    -0.00800
C1886       C  0.01829167  0.38318392  0.14432359    -0.05900
H1887       H  0.97242457  0.32833073  0.11879286     0.06500
H1888       H  0.02919722  0.42292972  0.12062397     0.09900
Br1889     Br  0.95601332  0.36350571  0.19721935    -0.05600
Br1890     Br  0.06457267  0.26349585  0.18329297    -0.02600
Br1891     Br  0.95464408  0.35904357  0.06363426     0.00300
Br1892     Br  0.04149603  0.39516611  0.17822646    -0.04100
C1893       C  0.99754271  0.21425845  0.29285628    -0.11500
C1894       C  0.96989808  0.20116968  0.30006092     0.04000
C1895       C  0.96855709  0.17841868  0.32129455    -0.12000
C1896       C  0.99459481  0.16850319  0.33555628     0.18800
C1897       C  0.02183889  0.18323204  0.33013768    -0.09100
C1898       C  0.02318503  0.20595076  0.30878822    -0.02000
H1899       H  0.94737897  0.16768589  0.32587734     0.05400
C1900       C  0.99314802  0.14231628  0.35543066     0.20800
H1901       H  0.04461168  0.21566435  0.30315815     0.10500
C1902       C  0.00038345  0.11398528  0.34430951    -0.15400
C1903       C  0.00061209  0.08892248  0.36304091     0.03500
C1904       C  0.99416350  0.09228145  0.39383414    -0.10700
C1905       C  0.98571605  0.12075260  0.40427871    -0.00800
C1906       C  0.98495376  0.14541301  0.38541591    -0.05900
H1907       H  0.00612444  0.11143410  0.32095597     0.06500
H1908       H  0.97969233  0.12410820  0.42744748     0.09900
Br1909     Br  0.05788886  0.17190590  0.35033247    -0.05600
Br1910     Br  0.93383528  0.21251436  0.27986722    -0.02600
Br1911     Br  0.01053574  0.05142952  0.34491552     0.00300
Br1912     Br  0.97292383  0.18309040  0.40163847    -0.04100
C1913       C  0.00888893  0.28157794  0.28206757    -0.11500
C1914       C  0.03616419  0.29587945  0.28838126     0.04000
C1915       C  0.03754836  0.31781653  0.31069611    -0.12000
C1916       C  0.01204613  0.32533566  0.32740037     0.18800
C1917       C  0.98492273  0.31058293  0.32142984    -0.09100
C1918       C  0.98352757  0.28890657  0.29896589    -0.07400
H1919       H  0.05861657  0.32875719  0.31528986     0.05400
C1920       C  0.01358708  0.34906049  0.35048637     0.20800
H1921       H  0.96254577  0.27779591  0.29448137     0.10500
C1922       C  0.01351433  0.37889229  0.34160675    -0.15400
C1923       C  0.01207200  0.40204891  0.36259477     0.03500
C1924       C  0.01013996  0.39549785  0.39369235    -0.10700
C1925       C  0.01151168  0.36532684  0.40228159    -0.00800
C1926       C  0.01325409  0.34238013  0.38112876    -0.05900
H1927       H  0.01412069  0.38420257  0.31802546     0.06500
H1928       H  0.01100436  0.35930875  0.42565307     0.09900
Br1929     Br  0.94915526  0.31981715  0.34322492    -0.05600
Br1930     Br  0.07225142  0.28463871  0.26830171    -0.02600
Br1931     Br  0.01359802  0.44149919  0.34604673     0.00300
Br1932     Br  0.01489649  0.30207468  0.39507393    -0.04100
loop_ 
_geom_bond_atom_site_label_1 
_geom_bond_atom_site_label_2 
_geom_bond_distance 
_geom_bond_site_symmetry_2 
_ccdc_geom_bond_type 
N1            C5   1.361       .  A
N1            C2   1.357       .  A
N1         C1913   1.443       .  S
C2            C3   1.379       .  A
C2         C1893   1.472   1_455  S
C3            C4   1.369       .  A
C3            H6   1.082   1_455  S
C4            C5   1.384       .  A
C4            H7   1.082       .  S
C5         C1873   1.480       .  S
O8           C19   1.298       .  A
O8          Eu44   2.495       .  S
O9           C20   1.291       .  A
O9          Eu43   2.453       .  S
O10          C21   1.291       .  A
O10         Eu16   2.455   1_655  S
O11          C22   1.289       .  A
O11         Eu16   2.440       .  S
O12          C22   1.291       .  A
O12         Eu46   2.463       .  S
O13          C21   1.296       .  A
O13         Eu45   2.488       .  S
O14          C20   1.289       .  A
O14         Eu16   2.453       .  S
O15          C19   1.287       .  A
O15         Eu16   2.452       .  S
Eu16         O26   2.358       .  S
Eu16         O18   2.350   1_455  S
Eu16         O17   2.343       .  S
Eu16         O24   2.354   1_455  S
O17         Eu46   2.353       .  S
O17         Eu43   2.337       .  S
O18         Eu44   2.357   1_655  S
O18         Eu45   2.369       .  S
C19        C1924   1.506       .  S
C20        C1824   1.485       .  S
C21        C1753   1.489       .  S
C22        C1733   1.485       .  S
H23          O24   0.965       .  S
O24         Eu45   2.363       .  S
O24         Eu43   2.346   1_655  S
H25          O26   0.965       .  S
O26         Eu44   2.345       .  S
O26         Eu46   2.361       .  S
O27          C50   1.289       .  A
O27         Eu43   2.451       .  S
O28          C51   1.295       .  A
O28         Eu44   2.478       .  S
O29          C52   1.297       .  A
O29         Eu45   2.492       .  S
O30          C53   1.295       .  A
O30         Eu46   2.478       .  S
O31          C54   1.294       .  A
O31         Eu46   2.479       .  S
O32          C55   1.296       .  A
O32         Eu45   2.482       .  S
O33          C56   1.287       .  A
O33         Eu47   2.438   1_655  S
O34          C57   1.289       .  A
O34         Eu47   2.444       .  S
O35          C56   1.295       .  A
O35         Eu45   2.479       .  S
O36          C57   1.294       .  A
O36         Eu46   2.477       .  S
O37          C52   1.286       .  A
O37         Eu43   2.434   1_655  S
O38          C55   1.287       .  A
O38         Eu44   2.438   1_655  S
O39          C54   1.288       .  A
O39         Eu44   2.434       .  S
O40          C53   1.287       .  A
O40         Eu43   2.436       .  S
O41          C50   1.290       .  A
O41         Eu47   2.453       .  S
O42          C51   1.290       .  A
O42         Eu47   2.461       .  S
Eu43         O61   2.346       .  S
Eu43         O49   2.346   1_455  S
Eu44         O48   2.350       .  S
Eu44         O59   2.355   1_455  S
Eu45         O59   2.368       .  S
Eu45         O49   2.357       .  S
Eu46         O48   2.350       .  S
Eu46         O61   2.354       .  S
Eu47         O48   2.343       .  S
Eu47         O59   2.357   1_455  S
Eu47         O61   2.353       .  S
Eu47         O49   2.347   1_455  S
C50        C1853   1.479       .  S
C51        C1833   1.501       .  S
C52        C1713   1.490       .  S
C53        C1653   1.478       .  S
C54        C1693   1.477       .  S
C55        C1673   1.487       .  S
C56        C1793   1.482       .  S
C57        C1773   1.476       .  S
H58          O59   0.964       .  S
H60          O61   0.964       .  S
N62          C66   1.358       .  A
N62          C63   1.354       .  A
N62        C1864   1.441       .  S
C63          C64   1.380       .  A
C63        C1613   1.468   1_655  S
C64          C65   1.371       .  A
C64          H67   1.082       .  S
C65          C66   1.381       .  A
C65          H68   1.082       .  S
C66        C1633   1.472       .  S
N69          C73   1.358       .  A
N69          C70   1.357       .  A
N69        C1844   1.443       .  S
C70          C71   1.381       .  A
C70        C1593   1.473       .  S
C71          C72   1.370       .  A
C71          H74   1.082       .  S
C72          C73   1.383       .  A
C72          H75   1.082       .  S
C73        C1584   1.475       .  S
N76          C80   1.356       .  A
N76          C77   1.358       .  A
N76        C1813   1.437       .  S
C77          C78   1.384       .  A
C77        C1533   1.483       .  S
C78          C79   1.374       .  A
C78          H81   1.082       .  S
C79          C80   1.380       .  A
C79          H82   1.082       .  S
C80        C1553   1.478       .  S
O83          C94   1.295       .  A
O83        Eu119   2.486   1_545  S
O84          C95   1.294       .  A
O84        Eu118   2.479   1_545  S
O85          C96   1.292       .  A
O85         Eu91   2.467       .  S
O86          C97   1.290       .  A
O86         Eu91   2.462   1_455  S
O87          C97   1.293       .  A
O87        Eu121   2.471   1_545  S
O88          C96   1.293       .  A
O88        Eu120   2.473   1_545  S
O89          C95   1.287       .  A
O89         Eu91   2.427       .  S
O90          C94   1.289       .  A
O90         Eu91   2.433       .  S
Eu91        O101   2.350   1_655  S
Eu91         O93   2.346       .  S
Eu91         O92   2.344   1_655  S
Eu91         O99   2.343       .  S
O92        Eu121   2.341   1_545  S
O92        Eu118   2.350   1_445  S
O93        Eu119   2.356   1_545  S
O93        Eu120   2.345   1_545  S
C94        C1904   1.494       .  S
C95        C1604   1.479   1_655  S
C96        C1493   1.493       .  S
C97        C1524   1.499       .  S
H98          O99   0.965       .  S
O99        Eu120   2.344   1_545  S
O99        Eu118   2.364   1_545  S
H100        O101   0.965       .  S
O101       Eu119   2.366   1_445  S
O101       Eu121   2.359   1_545  S
O102        C125   1.296       .  A
O102       Eu118   2.483       .  S
O103        C126   1.294       .  A
O103       Eu119   2.474       .  S
O104        C127   1.283       .  A
O104       Eu120   2.420       .  S
O105        C128   1.287       .  A
O105       Eu121   2.432       .  S
O106        C129   1.287       .  A
O106       Eu121   2.428       .  S
O107        C130   1.286       .  A
O107       Eu120   2.424       .  S
O108        C131   1.293       .  A
O108       Eu122   2.471       .  S
O109        C132   1.293       .  A
O109       Eu122   2.473   1_455  S
O110        C131   1.290       .  A
O110       Eu120   2.455       .  S
O111        C132   1.293       .  A
O111       Eu121   2.467       .  S
O112        C127   1.295       .  A
O112       Eu118   2.474       .  S
O113        C130   1.294       .  A
O113       Eu119   2.476       .  S
O114        C129   1.293       .  A
O114       Eu119   2.469   1_455  S
O115        C128   1.295       .  A
O115       Eu118   2.484   1_455  S
O116        C125   1.286       .  A
O116       Eu122   2.430       .  S
O117        C126   1.290       .  A
O117       Eu122   2.444       .  S
Eu118       O136   2.364   1_655  S
Eu118       O124   2.357       .  S
Eu119       O123   2.363   1_655  S
Eu119       O134   2.355       .  S
Eu120       O134   2.346       .  S
Eu120       O124   2.349       .  S
Eu121       O123   2.351       .  S
Eu121       O136   2.352       .  S
Eu122       O123   2.349   1_655  S
Eu122       O134   2.342       .  S
Eu122       O136   2.355   1_655  S
Eu122       O124   2.352       .  S
C125       C1644   1.479       .  S
C126       C1564   1.481       .  S
C127       C1373   1.480   1_565  S
C128       C1393   1.483       .  S
C129       C1424   1.470       .  S
C130       C1444   1.476       .  S
C131       C1473   1.484       .  S
C132       C1453   1.494       .  S
H133        O134   0.964       .  S
H135        O136   0.965       .  S
N137        C141   1.356       .  A
N137        C138   1.359       .  A
N137       C1513   1.445       .  S
C138        C139   1.384       .  A
C138       C1704   1.475       .  S
C139        C140   1.370       .  A
C139        H142   1.082       .  S
C140        C141   1.379       .  A
C140        H143   1.082       .  S
C141       C1364   1.469       .  S
N144        C148   1.360       .  A
N144        C145   1.364       .  A
N144       C1504   1.449       .  S
C145        C146   1.382       .  A
C145       C1684   1.480       .  S
C146        C147   1.368       .  A
C146        H149   1.082       .  S
C147        C148   1.380       .  A
C147        H150   1.082       .  S
C148       C1344   1.474       .  S
N151        C155   1.357       .  A
N151        C152   1.361       .  A
N151       C1484   1.445       .  S
C152        C153   1.383       .  A
C152       C1313   1.476       .  S
C153        C154   1.370       .  A
C153        H156   1.082       .  S
C154        C155   1.379       .  A
C154        H157   1.082       .  S
C155       C1724   1.471       .  S
N158        C162   1.356       .  A
N158        C159   1.358       .  A
N158       C1464   1.445       .  S
C159        C160   1.382       .  A
C159       C1664   1.472       .  S
C160        C161   1.369       .  A
C160        H163   1.082       .  S
C161        C162   1.380       .  A
C161        H164   1.082       .  S
C162       C1293   1.467       .  S
N165        C169   1.357       .  A
N165        C166   1.360       .  A
N165       C1273   1.445       .  S
C166        C167   1.384       .  A
C166       C1433   1.478       .  S
C167        C168   1.370       .  A
C167        H170   1.082       .  S
C168        C169   1.379       .  A
C168        H171   1.082       .  S
C169       C1253   1.473       .  S
O172        C183   1.295       .  A
O172       Eu208   2.481       .  S
O173        C184   1.293       .  A
O173       Eu207   2.461       .  S
O174        C185   1.289       .  A
O174       Eu180   2.454       .  S
O175        C186   1.289       .  A
O175       Eu180   2.457       .  S
O176        C186   1.292       .  A
O176       Eu210   2.466       .  S
O177        C185   1.294       .  A
O177       Eu209   2.478       .  S
O178        C184   1.285       .  A
O178       Eu180   2.423       .  S
O179        C183   1.286       .  A
O179       Eu180   2.432   1_545  S
Eu180       O190   2.339   1_565  S
Eu180       O182   2.345   1_565  S
Eu180       O181   2.347       .  S
Eu180       O188   2.350       .  S
O181       Eu210   2.344       .  S
O181       Eu207   2.358       .  S
O182       Eu208   2.359       .  S
O182       Eu209   2.349   1_545  S
C183       C1353   1.478       .  S
C184       C1304   1.469       .  S
C185       C1193   1.492       .  S
C186       C1233   1.484   1_565  S
H187        O188   0.965       .  S
O188       Eu209   2.349       .  S
O188       Eu207   2.361       .  S
H189        O190   0.965       .  S
O190       Eu208   2.362       .  S
O190       Eu210   2.351   1_545  S
O191        C214   1.294       .  A
O191       Eu207   2.476       .  S
O192        C215   1.296       .  A
O192       Eu208   2.488       .  S
O193        C216   1.288       .  A
O193       Eu209   2.438       .  S
O194        C217   1.289       .  A
O194       Eu210   2.448       .  S
O195        C218   1.289       .  A
O195       Eu210   2.438   1_545  S
O196        C219   1.285       .  A
O196       Eu209   2.428   1_545  S
O197        C220   1.290       .  A
O197       Eu211   2.457       .  S
O198        C221   1.293   1_565  A
O198       Eu211   2.472       .  S
O199        C220   1.292       .  A
O199       Eu209   2.466       .  S
O200        C221   1.291       .  A
O200       Eu210   2.461   1_545  S
O201        C216   1.296       .  A
O201       Eu207   2.492       .  S
O202        C219   1.295       .  A
O202       Eu208   2.476       .  S
O203        C218   1.294       .  A
O203       Eu208   2.475       .  S
O204        C217   1.295       .  A
O204       Eu207   2.473       .  S
O205        C214   1.287       .  A
O205       Eu211   2.435       .  S
O206        C215   1.286       .  A
O206       Eu211   2.431   1_545  S
Eu207       O225   2.359       .  S
Eu207       O213   2.348       .  S
Eu208       O212   2.362       .  S
Eu208       O223   2.360       .  S
Eu209       O223   2.360   1_565  S
Eu209       O213   2.349       .  S
Eu210       O212   2.355   1_565  S
Eu210       O225   2.352       .  S
Eu211       O212   2.349   1_565  S
Eu211       O223   2.352   1_565  S
Eu211       O225   2.341       .  S
Eu211       O213   2.348       .  S
C214       C1324   1.478       .  S
C215       C1333   1.480       .  S
C216       C1133   1.490       .  S
C217       C1173   1.486       .  S
C218       C1153   1.483       .  S
C219       C1113   1.482       .  S
C220       C1284   1.488       .  S
C221       C1213   1.488       .  S
H222        O223   0.965       .  S
H224        O225   0.965       .  S
N226        C230   1.358       .  A
N226        C227   1.356       .  A
N226       C1244   1.441       .  S
C227        C228   1.381       .  A
C227       C1093   1.475       .  S
C228        C229   1.373       .  A
C228        H231   1.082       .  S
C229        C230   1.382       .  A
C229        H232   1.082       .  S
C230       C1404   1.476   1_545  S
N233        C237   1.359       .  A
N233        C234   1.360       .  A
N233       C1224   1.443       .  S
C234        C235   1.379       .  A
C234       C1384   1.474       .  S
C235        C236   1.369       .  A
C235        H238   1.082       .  S
C236        C237   1.383       .  A
C236        H239   1.082       .  S
C237       C1084   1.479       .  S
N240        C244   1.355   1_565  A
N240        C241   1.354       .  A
N240       C1204   1.446       .  S
C241        C242   1.380       .  A
C241       C1064   1.462       .  S
C242        C243   1.367       .  A
C242        H245   1.082       .  S
C243        C244   1.382   1_565  A
C243        H246   1.082   1_565  S
C244       C1413   1.464       .  S
O247        C258   1.293       .  A
O247       Eu283   2.473       .  S
O248        C259   1.298       .  A
O248       Eu282   2.495   1_554  S
O249        C260   1.293       .  A
O249       Eu255   2.473   1_545  S
O250        C261   1.292       .  A
O250       Eu255   2.470       .  S
O251        C261   1.294       .  A
O251       Eu285   2.475   1_554  S
O252        C260   1.290       .  A
O252       Eu284   2.457   1_554  S
O253        C259   1.281       .  A
O253       Eu255   2.408       .  S
O254        C258   1.286       .  A
O254       Eu255   2.428       .  S
Eu255       O265   2.339       .  S
Eu255       O257   2.352   1_565  S
Eu255       O256   2.357       .  S
Eu255       O263   2.349   1_565  S
O256       Eu285   2.348   1_554  S
O256       Eu282   2.357   1_554  S
O257       Eu283   2.359   1_545  S
O257       Eu284   2.354   1_554  S
C258       C1264   1.469       .  S
C259       C1053   1.483       .  S
C260       C1033   1.482       .  S
C261       C1013   1.492       .  S
H262        O263   0.964       .  S
O263       Eu284   2.358   1_554  S
O263       Eu282   2.361   1_544  S
H264        O265   0.964       .  S
O265       Eu283   2.353       .  S
O265       Eu285   2.354   1_554  S
O266        C289   1.295       .  A
O266       Eu282   2.482       .  S
O267        C290   1.292       .  A
O267       Eu283   2.466   1_556  S
O268        C291   1.288       .  A
O268       Eu284   2.432       .  S
O269        C292   1.291       .  A
O269       Eu285   2.461       .  S
O270        C293   1.288       .  A
O270       Eu285   2.434   1_554  S
O271        C294   1.290       .  A
O271       Eu284   2.447       .  S
O272        C295   1.294       .  A
O272       Eu286   2.478   1_545  S
O273        C296   1.292       .  A
O273       Eu286   2.465       .  S
O274        C295   1.291       .  A
O274       Eu284   2.466       .  S
O275        C296   1.293       .  A
O275       Eu285   2.475       .  S
O276        C291   1.294       .  A
O276       Eu282   2.475   1_545  S
O277        C294   1.295       .  A
O277       Eu283   2.483   1_546  S
O278        C293   1.294       .  A
O278       Eu283   2.478       .  S
O279        C292   1.293       .  A
O279       Eu282   2.467       .  S
O280        C289   1.288       .  A
O280       Eu286   2.438       .  S
O281        C290   1.288       .  A
O281       Eu286   2.441       .  S
Eu282       O300   2.363       .  S
Eu282       O288   2.357   1_565  S
Eu283       O287   2.359   1_554  S
Eu283       O298   2.361   1_564  S
Eu284       O298   2.351       .  S
Eu284       O288   2.345       .  S
Eu285       O287   2.352       .  S
Eu285       O300   2.353       .  S
Eu286       O287   2.348       .  S
Eu286       O298   2.350   1_565  S
Eu286       O300   2.354       .  S
Eu286       O288   2.346   1_565  S
C289       C1104   1.484       .  S
C290       C1073   1.469       .  S
C291        C953   1.474       .  S
C292        C913   1.487       .  S
C293        C933   1.478       .  S
C294        C893   1.494       .  S
C295        C973   1.495       .  S
C296        C993   1.486       .  S
H297        O298   0.964       .  S
H299        O300   0.964       .  S
N301        C305   1.357       .  A
N301        C302   1.356       .  A
N301       C1044   1.445       .  S
C302        C303   1.380       .  A
C302       C1124   1.466       .  S
C303        C304   1.369       .  A
C303        H306   1.082       .  S
C304        C305   1.381       .  A
C304        H307   1.082       .  S
C305        C884   1.468       .  S
N308        C312   1.357       .  A
N308        C309   1.353       .  A
N308       C1024   1.441       .  S
C309        C310   1.380       .  A
C309        C853   1.469       .  S
C310        C311   1.372       .  A
C310        H313   1.082       .  S
C311        C312   1.383       .  A
C311        H314   1.082       .  S
C312       C1144   1.476       .  S
N315        C319   1.362       .  A
N315        C316   1.359       .  A
N315       C1004   1.446       .  S
C316        C317   1.380       .  A
C316        C833   1.474       .  S
C317        C318   1.370       .  A
C317        H320   1.082       .  S
C318        C319   1.382       .  A
C318        H321   1.082       .  S
C319       C1184   1.479       .  S
N322        C326   1.359       .  A
N322        C323   1.357       .  A
N322        C984   1.446       .  S
C323        C324   1.380       .  A
C323       C1164   1.466       .  S
C324        C325   1.368       .  A
C324        H327   1.082       .  S
C325        C326   1.381       .  A
C325        H328   1.082       .  S
C326        C824   1.471       .  S
O329        C340   1.294       .  A
O329       Eu365   2.474   1_554  S
O330        C341   1.295       .  A
O330       Eu364   2.485   1_554  S
O331        C342   1.292       .  A
O331       Eu337   2.473   1_455  S
O332        C343   1.289       .  A
O332       Eu337   2.451       .  S
O333        C343   1.292       .  A
O333       Eu367   2.462   1_554  S
O334        C342   1.293       .  A
O334       Eu366   2.468   1_554  S
O335        C341   1.289       .  A
O335       Eu337   2.443       .  S
O336        C340   1.289       .  A
O336       Eu337   2.439       .  S
Eu337       O347   2.355       .  S
Eu337       O339   2.354   1_655  S
Eu337       O338   2.347       .  S
Eu337       O345   2.348   1_655  S
O338       Eu367   2.348   1_554  S
O338       Eu364   2.349   1_554  S
O339       Eu365   2.369   1_454  S
O339       Eu366   2.350   1_554  S
C340       C1884   1.477       .  S
C341       C1544   1.485       .  S
C342        C773   1.496       .  S
C343        C793   1.483       .  S
H344        O345   0.965       .  S
O345       Eu366   2.356   1_554  S
O345       Eu364   2.361   1_454  S
H346        O347   0.964       .  S
O347       Eu365   2.356   1_554  S
O347       Eu367   2.351   1_554  S
O348        C371   1.291       .  A
O348       Eu364   2.459   1_455  S
O349        C372   1.294       .  A
O349       Eu365   2.478       .  S
O350        C373   1.288       .  A
O350       Eu366   2.437       .  S
O351        C374   1.284       .  A
O351       Eu367   2.423       .  S
O352        C375   1.286       .  A
O352       Eu367   2.430       .  S
O353        C376   1.290       .  A
O353       Eu366   2.452       .  S
O354        C377   1.292       .  A
O354       Eu368   2.467       .  S
O355        C378   1.292       .  A
O355       Eu368   2.465   1_655  S
O356        C377   1.291       .  A
O356       Eu366   2.461       .  S
O357        C378   1.293       .  A
O357       Eu367   2.478       .  S
O358        C373   1.296       .  A
O358       Eu364   2.486   1_455  S
O359        C376   1.294       .  A
O359       Eu365   2.477   1_455  S
O360        C375   1.293       .  A
O360       Eu365   2.472       .  S
O361        C374   1.296       .  A
O361       Eu364   2.482       .  S
O362        C371   1.288       .  A
O362       Eu368   2.435       .  S
O363        C372   1.287   1_455  A
O363       Eu368   2.431       .  S
Eu364       O382   2.369       .  S
Eu364       O370   2.355   1_655  S
Eu365       O369   2.355       .  S
Eu365       O380   2.354   1_655  S
Eu366       O380   2.349       .  S
Eu366       O370   2.347       .  S
Eu367       O369   2.343       .  S
Eu367       O382   2.355       .  S
Eu368       O369   2.349   1_455  S
Eu368       O380   2.347       .  S
Eu368       O382   2.353   1_455  S
Eu368       O370   2.345       .  S
C371       C1624   1.468       .  S
C372       C1573   1.483   1_655  S
C373        C704   1.475       .  S
C374        C653   1.480       .  S
C375        C673   1.470       .  S
C376        C713   1.481       .  S
C377        C753   1.489       .  S
C378        C733   1.494       .  S
H379        O380   0.965       .  S
H381        O382   0.965       .  S
N383        C387   1.352       .  A
N383        C384   1.353       .  A
N383        C804   1.435       .  S
C384        C385   1.382       .  A
C384       C1764   1.473       .  S
C385        C386   1.377       .  A
C385        H388   1.082       .  S
C386        C387   1.382       .  A
C386        H389   1.082       .  S
C387        C644   1.472       .  S
N390        C394   1.359       .  A
N390        C391   1.354       .  A
N390        C784   1.445       .  S
C391        C392   1.380       .  A
C391        C613   1.466       .  S
C392        C393   1.368       .  A
C392        H395   1.082       .  S
C393        C394   1.382       .  A
C393        H396   1.082       .  S
C394       C1744   1.472       .  S
N397        C401   1.358       .  A
N397        C398   1.358       .  A
N397        C764   1.444       .  S
C398        C399   1.380       .  A
C398        C593   1.472       .  S
C399        C400   1.370       .  A
C399        H402   1.082       .  S
C400        C401   1.382       .  A
C400        H403   1.082       .  S
C401       C1784   1.475       .  S
N404        C408   1.361       .  A
N404        C405   1.359       .  A
N404        C744   1.451       .  S
C405        C406   1.378       .  A
C405       C1804   1.469       .  S
C406        C407   1.367       .  A
C406        H409   1.082       .  S
C407        C408   1.383       .  A
C407        H410   1.082       .  S
C408        C573   1.475       .  S
N411        C415   1.362       .  A
N411        C412   1.358       .  A
N411        C553   1.448       .  S
C412        C413   1.379       .  A
C412        C724   1.470       .  S
C413        C414   1.366       .  A
C413        H416   1.082       .  S
C414        C415   1.383       .  A
C414        H417   1.082       .  S
C415        C964   1.474   1_556  S
O418        C429   1.294       .  A
O418       Eu454   2.472       .  S
O419        C430   1.293       .  A
O419       Eu453   2.465       .  S
O420        C431   1.290       .  A
O420       Eu426   2.463       .  S
O421        C432   1.291       .  A
O421       Eu426   2.462       .  S
O422        C432   1.293       .  A
O422       Eu456   2.476       .  S
O423        C431   1.295       .  A
O423       Eu455   2.487       .  S
O424        C430   1.286       .  A
O424       Eu426   2.431       .  S
O425        C429   1.287       .  A
O425       Eu426   2.438   1_554  S
Eu426       O436   2.348   1_556  S
Eu426       O428   2.345   1_556  S
Eu426       O427   2.348       .  S
Eu426       O434   2.350       .  S
O427       Eu456   2.342       .  S
O427       Eu453   2.362       .  S
O428       Eu454   2.358       .  S
O428       Eu455   2.346   1_554  S
C429        C873   1.483       .  S
C430        C813   1.472       .  S
C431        C564   1.496       .  S
C432        C504   1.493       .  S
H433        O434   0.964       .  S
O434       Eu455   2.344       .  S
O434       Eu453   2.361       .  S
H435        O436   0.965       .  S
O436       Eu454   2.365       .  S
O436       Eu456   2.353   1_554  S
O437        C460   1.295       .  A
O437       Eu453   2.482       .  S
O438        C461   1.295       .  A
O438       Eu454   2.480       .  S
O439        C462   1.285       .  A
O439       Eu455   2.428       .  S
O440        C463   1.288       .  A
O440       Eu456   2.436       .  S
O441        C464   1.286       .  A
O441       Eu456   2.432   1_554  S
O442        C465   1.285       .  A
O442       Eu455   2.414   1_554  S
O443        C466   1.291       .  A
O443       Eu457   2.464       .  S
O444        C467   1.292       .  A
O444       Eu457   2.465       .  S
O445        C466   1.293       .  A
O445       Eu455   2.470       .  S
O446        C467   1.292       .  A
O446       Eu456   2.468       .  S
O447        C462   1.296       .  A
O447       Eu453   2.486       .  S
O448        C465   1.295       .  A
O448       Eu454   2.481       .  S
O449        C464   1.295       .  A
O449       Eu454   2.479       .  S
O450        C463   1.294       .  A
O450       Eu453   2.475       .  S
O451        C460   1.286       .  A
O451       Eu457   2.431       .  S
O452        C461   1.287       .  A
O452       Eu457   2.433   1_554  S
Eu453       O471   2.358       .  S
Eu453       O459   2.355       .  S
Eu454       O458   2.350       .  S
Eu454       O469   2.361       .  S
Eu455       O469   2.360   1_556  S
Eu455       O459   2.353       .  S
Eu456       O458   2.345   1_556  S
Eu456       O471   2.356       .  S
Eu457       O458   2.346   1_556  S
Eu457       O469   2.350   1_556  S
Eu457       O471   2.348       .  S
Eu457       O459   2.352       .  S
C460        C844   1.476       .  S
C461        C864   1.479       .  S
C462        C604   1.484       .  S
C463        C584   1.484       .  S
C464        C633   1.481       .  S
C465        C624   1.469       .  S
C466        C524   1.491       .  S
C467        C533   1.484   1_556  S
H468        O469   0.965       .  S
H470        O471   0.964       .  S
N472        C476   1.355       .  A
N472        C473   1.352       .  A
N472        C544   1.441       .  S
C473        C474   1.381       .  A
C473        C944   1.465       .  S
C474        C475   1.372       .  A
C474        H477   1.082       .  S
C475        C476   1.381       .  A
C475        H478   1.082       .  S
C476        C664   1.468       .  S
N479        C483   1.358       .  A
N479        C480   1.361       .  A
N479        C513   1.442       .  S
C480        C481   1.381       .  A
C480        C924   1.483       .  S
C481        C482   1.373       .  A
C481        H484   1.082       .  S
C482        C483   1.381       .  A
C482        H485   1.082       .  S
C483        C693   1.478       .  S
N486        C490   1.357       .  A
N486        C487   1.358       .  A
N486        C493   1.439       .  S
C487        C488   1.381       .  A
C487        C684   1.478       .  S
C488        C489   1.373       .  A
C488        H491   1.082       .  S
C489        C490   1.382       .  A
C489        H492   1.082       .  S
C490        C904   1.477       .  S
C493        C494   1.406   1_556  A
C493        C498   1.401       .  A
C494        C495   1.403       .  A
C494       Br510   1.914       .  S
C495        C496   1.406   1_554  A
C495        H499   1.083       .  S
C496        C497   1.411       .  A
C496        C500   1.488       .  S
C497        C498   1.400       .  A
C497       Br509   1.919       .  S
C498        H501   1.083       .  S
C500        C502   1.402       .  A
C500        C506   1.409   1_556  A
C502        C503   1.401       .  A
C502        H507   1.084       .  S
C503        C504   1.416       .  A
C503       Br511   1.920       .  S
C504        C505   1.410   1_556  A
C505        C506   1.405       .  A
C505        H508   1.083       .  S
C506       Br512   1.920       .  S
C513        C514   1.410       .  A
C513        C518   1.404       .  A
C514        C515   1.400       .  A
C514       Br530   1.917       .  S
C515        C516   1.402       .  A
C515        H519   1.084       .  S
C516        C517   1.408   1_556  A
C516        C520   1.482       .  S
C517        C518   1.403   1_554  A
C517       Br529   1.917       .  S
C518        H521   1.083   1_556  S
C520        C522   1.401   1_556  A
C520        C526   1.407       .  A
C522        C523   1.403       .  A
C522        H527   1.083       .  S
C523        C524   1.418   1_554  A
C523       Br531   1.922       .  S
C524        C525   1.408       .  A
C525        C526   1.402       .  A
C525        H528   1.083       .  S
C526       Br532   1.919       .  S
C533        C534   1.412       .  A
C533        C538   1.406   1_554  A
C534        C535   1.401       .  A
C534       Br550   1.920       .  S
C535        C536   1.404       .  A
C535        H539   1.084       .  S
C536        C537   1.410   1_554  A
C536        C540   1.487       .  S
C537        C538   1.402       .  A
C537       Br549   1.919       .  S
C538        H541   1.084       .  S
C540        C542   1.406   1_554  A
C540        C546   1.411       .  A
C542        C543   1.402       .  A
C542        H547   1.083       .  S
C543        C544   1.407   1_556  A
C543       Br551   1.915       .  S
C544        C545   1.402       .  A
C545        C546   1.399       .  A
C545        H548   1.083       .  S
C546       Br552   1.919       .  S
C553        C554   1.414   1_556  A
C553        C558   1.405       .  A
C554        C555   1.405       .  A
C554       Br570   1.914       .  S
C555        C556   1.404   1_554  A
C555        H559   1.083       .  S
C556        C557   1.407       .  A
C556        C560   1.487   1_556  S
C557        C558   1.401       .  A
C557       Br569   1.918       .  S
C558        H561   1.083       .  S
C560        C562   1.401   1_554  A
C560        C566   1.407       .  A
C562        C563   1.403       .  A
C562        H567   1.084       .  S
C563        C564   1.419       .  A
C563       Br571   1.921       .  S
C564        C565   1.409   1_556  A
C565        C566   1.405       .  A
C565        H568   1.083       .  S
C566       Br572   1.918       .  S
C573        C574   1.412       .  A
C573        C578   1.403       .  A
C574        C575   1.392       .  A
C574       Br590   1.921       .  S
C575        C576   1.398       .  A
C575        H579   1.084       .  S
C576        C577   1.409       .  A
C576        C580   1.473       .  S
C577        C578   1.401       .  A
C577       Br589   1.916       .  S
C578        H581   1.083       .  S
C580        C582   1.402       .  A
C580        C586   1.402       .  A
C582        C583   1.400       .  A
C582        H587   1.084       .  S
C583        C584   1.414       .  A
C583       Br591   1.921       .  S
C584        C585   1.410       .  A
C585        C586   1.396       .  A
C585        H588   1.083       .  S
C586       Br592   1.918       .  S
C593        C594   1.408       .  A
C593        C598   1.402       .  A
C594        C595   1.399       .  A
C594       Br610   1.918       .  S
C595        C596   1.402       .  A
C595        H599   1.083       .  S
C596        C597   1.407       .  A
C596        C600   1.476       .  S
C597        C598   1.398       .  A
C597       Br609   1.918       .  S
C598        H601   1.083       .  S
C600        C602   1.397       .  A
C600        C606   1.408       .  A
C602        C603   1.397       .  A
C602        H607   1.084       .  S
C603        C604   1.421       .  A
C603       Br611   1.924       .  S
C604        C605   1.405       .  A
C605        C606   1.400       .  A
C605        H608   1.083       .  S
C606       Br612   1.917       .  S
C613        C614   1.407       .  A
C613        C618   1.403       .  A
C614        C615   1.391       .  A
C614       Br630   1.919       .  S
C615        C616   1.398       .  A
C615        H619   1.084       .  S
C616        C617   1.406       .  A
C616        C620   1.466       .  S
C617        C618   1.398       .  A
C617       Br629   1.918       .  S
C618        H621   1.084       .  S
C620        C622   1.404       .  A
C620        C626   1.400       .  A
C622        C623   1.399       .  A
C622        H627   1.084       .  S
C623        C624   1.408       .  A
C623       Br631   1.920       .  S
C624        C625   1.408       .  A
C625        C626   1.392       .  A
C625        H628   1.084       .  S
C626       Br632   1.920       .  S
C633        C634   1.417       .  A
C633        C638   1.403       .  A
C634        C635   1.398       .  A
C634       Br650   1.923       .  S
C635        C636   1.400       .  A
C635        H639   1.084       .  S
C636        C637   1.411       .  A
C636        C640   1.481       .  S
C637        C638   1.399       .  A
C637       Br649   1.919       .  S
C638        H641   1.083       .  S
C640        C642   1.404       .  A
C640        C646   1.411       .  A
C642        C643   1.398       .  A
C642        H647   1.084       .  S
C643        C644   1.405       .  A
C643       Br651   1.916       .  S
C644        C645   1.401       .  A
C645        C646   1.399       .  A
C645        H648   1.084       .  S
C646       Br652   1.919       .  S
C653        C654   1.420       .  A
C653        C658   1.405   1_556  A
C654        C655   1.396       .  A
C654       Br670   1.924       .  S
C655        C656   1.396       .  A
C655        H659   1.084       .  S
C656        C657   1.407   1_556  A
C656        C660   1.469       .  S
C657        C658   1.398       .  A
C657       Br669   1.918       .  S
C658        H661   1.083       .  S
C660        C662   1.403   1_556  A
C660        C666   1.404       .  A
C662        C663   1.400       .  A
C662        H667   1.083       .  S
C663        C664   1.408       .  A
C663       Br671   1.918       .  S
C664        C665   1.401   1_554  A
C665        C666   1.393       .  A
C665        H668   1.084       .  S
C666       Br672   1.919       .  S
C673        C674   1.412   1_556  A
C673        C678   1.401       .  A
C674        C675   1.399       .  A
C674       Br690   1.922       .  S
C675        C676   1.402   1_554  A
C675        H679   1.084       .  S
C676        C677   1.409       .  A
C676        C680   1.477       .  S
C677        C678   1.396       .  A
C677       Br689   1.917       .  S
C678        H681   1.084       .  S
C680        C682   1.403       .  A
C680        C686   1.406   1_556  A
C682        C683   1.401       .  A
C682        H687   1.084       .  S
C683        C684   1.409       .  A
C683       Br691   1.915       .  S
C684        C685   1.404       .  A
C685        C686   1.398   1_556  A
C685        H688   1.084   1_556  S
C686       Br692   1.919       .  S
C693        C694   1.407       .  A
C693        C698   1.402       .  A
C694        C695   1.403       .  A
C694       Br710   1.915       .  S
C695        C696   1.406       .  A
C695        H699   1.083       .  S
C696        C697   1.411   1_556  A
C696        C700   1.487       .  S
C697        C698   1.398   1_554  A
C697       Br709   1.920       .  S
C698        H701   1.084   1_556  S
C700        C702   1.403   1_556  A
C700        C706   1.414       .  A
C702        C703   1.399       .  A
C702        H707   1.083       .  S
C703        C704   1.410   1_554  A
C703       Br711   1.920       .  S
C704        C705   1.402       .  A
C705        C706   1.402       .  A
C705        H708   1.084       .  S
C706       Br712   1.920       .  S
C713        C714   1.415       .  A
C713        C718   1.403   1_556  A
C714        C715   1.395       .  A
C714       Br730   1.915       .  S
C715        C716   1.397       .  A
C715        H719   1.084       .  S
C716        C717   1.413   1_556  A
C716        C720   1.480       .  S
C717        C718   1.402       .  A
C717       Br729   1.921       .  S
C718        H721   1.083       .  S
C720        C722   1.403   1_556  A
C720        C726   1.411       .  A
C722        C723   1.397       .  A
C722        H727   1.084       .  S
C723        C724   1.405   1_554  A
C723       Br731   1.915       .  S
C724        C725   1.402       .  A
C725        C726   1.397       .  A
C725        H728   1.084       .  S
C726       Br732   1.919       .  S
C733        C734   1.416       .  A
C733        C738   1.408       .  A
C734        C735   1.406       .  A
C734       Br750   1.920       .  S
C735        C736   1.404       .  A
C735        H739   1.083       .  S
C736        C737   1.408       .  A
C736        C740   1.490       .  S
C737        C738   1.402       .  A
C737       Br749   1.917       .  S
C738        H741   1.083       .  S
C740        C742   1.403       .  A
C740        C746   1.408       .  A
C742        C743   1.404       .  A
C742        H747   1.083       .  S
C743        C744   1.414       .  A
C743       Br751   1.916       .  S
C744        C745   1.407       .  A
C745        C746   1.404       .  A
C745        H748   1.082       .  S
C746       Br752   1.917       .  S
C753        C754   1.416       .  A
C753        C758   1.408       .  A
C754        C755   1.401       .  A
C754       Br770   1.922       .  S
C755        C756   1.403       .  A
C755        H759   1.084       .  S
C756        C757   1.409       .  A
C756        C760   1.488       .  S
C757        C758   1.403       .  A
C757       Br769   1.919       .  S
C758        H761   1.083       .  S
C760        C762   1.405       .  A
C760        C766   1.410       .  A
C762        C763   1.404       .  A
C762        H767   1.083       .  S
C763        C764   1.411       .  A
C763       Br771   1.915       .  S
C764        C765   1.402       .  A
C765        C766   1.401       .  A
C765        H768   1.083       .  S
C766       Br772   1.919       .  S
C773        C774   1.420       .  A
C773        C778   1.410       .  A
C774        C775   1.405       .  A
C774       Br790   1.922       .  S
C775        C776   1.401       .  A
C775        H779   1.084       .  S
C776        C777   1.405       .  A
C776        C780   1.484       .  S
C777        C778   1.401       .  A
C777       Br789   1.919       .  S
C778        H781   1.083       .  S
C780        C782   1.402       .  A
C780        C786   1.408       .  A
C782        C783   1.400       .  A
C782        H787   1.083       .  S
C783        C784   1.408       .  A
C783       Br791   1.914       .  S
C784        C785   1.406       .  A
C785        C786   1.404       .  A
C785        H788   1.083       .  S
C786       Br792   1.917       .  S
C793        C794   1.415       .  A
C793        C798   1.405       .  A
C794        C795   1.401       .  A
C794       Br810   1.923       .  S
C795        C796   1.404       .  A
C795        H799   1.084       .  S
C796        C797   1.410       .  A
C796        C800   1.484       .  S
C797        C798   1.398       .  A
C797       Br809   1.919       .  S
C798        H801   1.084       .  S
C800        C802   1.404       .  A
C800        C806   1.413       .  A
C802        C803   1.397       .  A
C802        H807   1.083       .  S
C803        C804   1.405       .  A
C803       Br811   1.916       .  S
C804        C805   1.400       .  A
C805        C806   1.403       .  A
C805        H808   1.083       .  S
C806       Br812   1.918       .  S
C813        C814   1.414       .  A
C813        C818   1.403       .  A
C814        C815   1.394       .  A
C814       Br830   1.920       .  S
C815        C816   1.398       .  A
C815        H819   1.084       .  S
C816        C817   1.410       .  A
C816        C820   1.474       .  S
C817        C818   1.398       .  A
C817       Br829   1.918       .  S
C818        H821   1.084       .  S
C820        C822   1.402       .  A
C820        C826   1.407       .  A
C822        C823   1.399       .  A
C822        H827   1.083       .  S
C823        C824   1.408       .  A
C823       Br831   1.917       .  S
C824        C825   1.404       .  A
C825        C826   1.396       .  A
C825        H828   1.084       .  S
C826       Br832   1.921       .  S
C833        C834   1.407       .  A
C833        C838   1.401       .  A
C834        C835   1.403       .  A
C834       Br850   1.917       .  S
C835        C836   1.407       .  A
C835        H839   1.083       .  S
C836        C837   1.408       .  A
C836        C840   1.482       .  S
C837        C838   1.395       .  A
C837       Br849   1.920       .  S
C838        H841   1.084       .  S
C840        C842   1.402       .  A
C840        C846   1.411       .  A
C842        C843   1.398       .  A
C842        H847   1.084       .  S
C843        C844   1.413       .  A
C843       Br851   1.922       .  S
C844        C845   1.402       .  A
C845        C846   1.400       .  A
C845        H848   1.084       .  S
C846       Br852   1.918       .  S
C853        C854   1.406       .  A
C853        C858   1.399       .  A
C854        C855   1.400       .  A
C854       Br870   1.919       .  S
C855        C856   1.405       .  A
C855        H859   1.083       .  S
C856        C857   1.411       .  A
C856        C860   1.481       .  S
C857        C858   1.397       .  A
C857       Br869   1.918       .  S
C858        H861   1.084       .  S
C860        C862   1.405       .  A
C860        C866   1.407       .  A
C862        C863   1.400       .  A
C862        H867   1.084       .  S
C863        C864   1.409       .  A
C863       Br871   1.921       .  S
C864        C865   1.408       .  A
C865        C866   1.399       .  A
C865        H868   1.084       .  S
C866       Br872   1.919       .  S
C873        C874   1.419       .  A
C873        C878   1.408       .  A
C874        C875   1.392       .  A
C874       Br890   1.922       .  S
C875        C876   1.395       .  A
C875        H879   1.084       .  S
C876        C877   1.408       .  A
C876        C880   1.474       .  S
C877        C878   1.402       .  A
C877       Br889   1.919       .  S
C878        H881   1.083       .  S
C880        C882   1.402       .  A
C880        C886   1.408       .  A
C882        C883   1.399       .  A
C882        H887   1.083       .  S
C883        C884   1.408       .  A
C883       Br891   1.918       .  S
C884        C885   1.401       .  A
C885        C886   1.395       .  A
C885        H888   1.083       .  S
C886       Br892   1.920       .  S
C893        C894   1.417   1_556  A
C893        C898   1.412       .  A
C894        C895   1.403   1_554  A
C894       Br910   1.921       .  S
C895        C896   1.403       .  A
C895        H899   1.084   1_556  S
C896        C897   1.403       .  A
C896        C900   1.482       .  S
C897        C898   1.399       .  A
C897       Br909   1.919       .  S
C898        H901   1.083       .  S
C900        C902   1.404       .  A
C900        C906   1.408   1_556  A
C902        C903   1.401       .  A
C902        H907   1.083       .  S
C903        C904   1.408       .  A
C903       Br911   1.919       .  S
C904        C905   1.402       .  A
C905        C906   1.400   1_556  A
C905        H908   1.082   1_556  S
C906       Br912   1.918       .  S
C913        C914   1.416       .  A
C913        C918   1.407   1_556  A
C914        C915   1.399       .  A
C914       Br930   1.923       .  S
C915        C916   1.401       .  A
C915        H919   1.084       .  S
C916        C917   1.409       .  A
C916        C920   1.484       .  S
C917        C918   1.403   1_556  A
C917       Br929   1.918   1_556  S
C918        H921   1.083       .  S
C920        C922   1.405   1_556  A
C920        C926   1.407       .  A
C922        C923   1.405   1_554  A
C922        H927   1.083       .  S
C923        C924   1.411       .  A
C923       Br931   1.918   1_556  S
C924        C925   1.404       .  A
C925        C926   1.398       .  A
C925        H928   1.084       .  S
C926       Br932   1.919       .  S
C933        C934   1.411   1_554  A
C933        C938   1.409       .  A
C934        C935   1.398       .  A
C934       Br950   1.920       .  S
C935        C936   1.403   1_556  A
C935        H939   1.084       .  S
C936        C937   1.403       .  A
C936        C940   1.472       .  S
C937        C938   1.395       .  A
C937       Br949   1.921       .  S
C938        H941   1.084       .  S
C940        C942   1.401       .  A
C940        C946   1.409   1_554  A
C942        C943   1.394       .  A
C942        H947   1.083       .  S
C943        C944   1.405       .  A
C943       Br951   1.918       .  S
C944        C945   1.400   1_554  A
C945        C946   1.397       .  A
C945        H948   1.084       .  S
C946       Br952   1.919       .  S
C953        C954   1.410       .  A
C953        C958   1.405   1_556  A
C954        C955   1.402       .  A
C954       Br970   1.920       .  S
C955        C956   1.405       .  A
C955        H959   1.083       .  S
C956        C957   1.403   1_556  A
C956        C960   1.474   1_556  S
C957        C958   1.393       .  A
C957       Br969   1.918       .  S
C958        H961   1.084       .  S
C960        C962   1.399       .  A
C960        C966   1.408   1_554  A
C962        C963   1.395       .  A
C962        H967   1.084       .  S
C963        C964   1.412       .  A
C963       Br971   1.923       .  S
C964        C965   1.403   1_554  A
C965        C966   1.402       .  A
C965        H968   1.083       .  S
C966       Br972   1.918       .  S
C973        C974   1.418       .  A
C973        C978   1.408       .  A
C974        C975   1.405       .  A
C974       Br990   1.922       .  S
C975        C976   1.404       .  A
C975        H979   1.083       .  S
C976        C977   1.410       .  A
C976        C980   1.493       .  S
C977        C978   1.404       .  A
C977       Br989   1.918       .  S
C978        H981   1.083       .  S
C980        C982   1.406       .  A
C980        C986   1.411       .  A
C982        C983   1.404       .  A
C982        H987   1.083       .  S
C983        C984   1.408       .  A
C983       Br991   1.915       .  S
C984        C985   1.404       .  A
C985        C986   1.404       .  A
C985        H988   1.081       .  S
C986       Br992   1.918       .  S
C993        C994   1.412       .  A
C993        C998   1.407       .  A
C994        C995   1.402       .  A
C994      Br1010   1.921       .  S
C995        C996   1.403       .  A
C995        H999   1.083       .  S
C996        C997   1.408       .  A
C996       C1000   1.486       .  S
C997        C998   1.405       .  A
C997      Br1009   1.919       .  S
C998       H1001   1.083       .  S
C1000      C1002   1.403       .  A
C1000      C1006   1.408       .  A
C1002      C1003   1.402       .  A
C1002      H1007   1.083       .  S
C1003      C1004   1.412       .  A
C1003     Br1011   1.916       .  S
C1004      C1005   1.405       .  A
C1005      C1006   1.401       .  A
C1005      H1008   1.082       .  S
C1006     Br1012   1.918       .  S
C1013      C1014   1.417       .  A
C1013      C1018   1.407       .  A
C1014      C1015   1.404       .  A
C1014     Br1030   1.921       .  S
C1015      C1016   1.404       .  A
C1015      H1019   1.084       .  S
C1016      C1017   1.409       .  A
C1016      C1020   1.489       .  S
C1017      C1018   1.402       .  A
C1017     Br1029   1.919       .  S
C1018      H1021   1.083       .  S
C1020      C1022   1.406       .  A
C1020      C1026   1.411       .  A
C1022      C1023   1.402       .  A
C1022      H1027   1.083       .  S
C1023      C1024   1.406       .  A
C1023     Br1031   1.914       .  S
C1024      C1025   1.403       .  A
C1025      C1026   1.401       .  A
C1025      H1028   1.083       .  S
C1026     Br1032   1.919       .  S
C1033      C1034   1.410       .  A
C1033      C1038   1.402       .  A
C1034      C1035   1.404       .  A
C1034     Br1050   1.922       .  S
C1035      C1036   1.408       .  A
C1035      H1039   1.083       .  S
C1036      C1037   1.417       .  A
C1036      C1040   1.499       .  S
C1037      C1038   1.403       .  A
C1037     Br1049   1.920       .  S
C1038      H1041   1.084       .  S
C1040      C1042   1.407       .  A
C1040      C1046   1.416       .  A
C1042      C1043   1.403       .  A
C1042      H1047   1.083       .  S
C1043      C1044   1.409       .  A
C1043     Br1051   1.915       .  S
C1044      C1045   1.402       .  A
C1045      C1046   1.404       .  A
C1045      H1048   1.083       .  S
C1046     Br1052   1.919       .  S
C1053      C1054   1.425       .  A
C1053      C1058   1.406       .  A
C1054      C1055   1.392       .  A
C1054     Br1070   1.925       .  S
C1055      C1056   1.391       .  A
C1055      H1059   1.084       .  S
C1056      C1057   1.405       .  A
C1056      C1060   1.463       .  S
C1057      C1058   1.398       .  A
C1057     Br1069   1.919       .  S
C1058      H1061   1.083       .  S
C1060      C1062   1.399   1_565  A
C1060      C1066   1.403       .  A
C1062      C1063   1.394       .  A
C1062      H1067   1.084       .  S
C1063      C1064   1.406   1_545  A
C1063     Br1071   1.915       .  S
C1064      C1065   1.403       .  A
C1065      C1066   1.394       .  A
C1065      H1068   1.084       .  S
C1066     Br1072   1.918       .  S
C1073      C1074   1.409       .  A
C1073      C1078   1.400   1_565  A
C1074      C1075   1.398       .  A
C1074     Br1090   1.916       .  S
C1075      C1076   1.403       .  A
C1075      H1079   1.084       .  S
C1076      C1077   1.412   1_565  A
C1076      C1080   1.482       .  S
C1077      C1078   1.399       .  A
C1077     Br1089   1.918       .  S
C1078      H1081   1.084       .  S
C1080      C1082   1.405   1_565  A
C1080      C1086   1.407       .  A
C1082      C1083   1.402       .  A
C1082      H1087   1.084       .  S
C1083      C1084   1.409       .  A
C1083     Br1091   1.914       .  S
C1084      C1085   1.404   1_545  A
C1085      C1086   1.395       .  A
C1085      H1088   1.084       .  S
C1086     Br1092   1.919       .  S
C1093      C1094   1.406       .  A
C1093      C1098   1.402   1_545  A
C1094      C1095   1.398       .  A
C1094     Br1110   1.918       .  S
C1095      C1096   1.403       .  A
C1095      H1099   1.083       .  S
C1096      C1097   1.411   1_545  A
C1096      C1100   1.483   1_545  S
C1097      C1098   1.402       .  A
C1097     Br1109   1.917       .  S
C1098      H1101   1.084       .  S
C1100      C1102   1.406       .  A
C1100      C1106   1.406   1_565  A
C1102      C1103   1.403       .  A
C1102      H1107   1.083       .  S
C1103      C1104   1.412       .  A
C1103     Br1111   1.921       .  S
C1104      C1105   1.408   1_565  A
C1105      C1106   1.397       .  A
C1105      H1108   1.084       .  S
C1106     Br1112   1.919       .  S
C1113      C1114   1.421       .  A
C1113      C1118   1.406       .  A
C1114      C1115   1.396       .  A
C1114     Br1130   1.924       .  S
C1115      C1116   1.395       .  A
C1115      H1119   1.084       .  S
C1116      C1117   1.405       .  A
C1116      C1120   1.467       .  S
C1117      C1118   1.396       .  A
C1117     Br1129   1.919       .  S
C1118      H1121   1.083       .  S
C1120      C1122   1.401       .  A
C1120      C1126   1.404       .  A
C1122      C1123   1.397       .  A
C1122      H1127   1.084       .  S
C1123      C1124   1.406       .  A
C1123     Br1131   1.915       .  S
C1124      C1125   1.402       .  A
C1125      C1126   1.394       .  A
C1125      H1128   1.084       .  S
C1126     Br1132   1.919       .  S
C1133      C1134   1.415       .  A
C1133      C1138   1.412       .  A
C1134      C1135   1.402       .  A
C1134     Br1150   1.919       .  S
C1135      C1136   1.402       .  A
C1135      H1139   1.084       .  S
C1136      C1137   1.402       .  A
C1136      C1140   1.476       .  S
C1137      C1138   1.399       .  A
C1137     Br1149   1.919       .  S
C1138      H1141   1.083       .  S
C1140      C1142   1.399       .  A
C1140      C1146   1.409       .  A
C1142      C1143   1.396       .  A
C1142      H1147   1.084       .  S
C1143      C1144   1.411       .  A
C1143     Br1151   1.920       .  S
C1144      C1145   1.403       .  A
C1145      C1146   1.402       .  A
C1145      H1148   1.083       .  S
C1146     Br1152   1.917       .  S
C1153      C1154   1.414       .  A
C1153      C1158   1.411       .  A
C1154      C1155   1.400       .  A
C1154     Br1170   1.921       .  S
C1155      C1156   1.404       .  A
C1155      H1159   1.084       .  S
C1156      C1157   1.402       .  A
C1156      C1160   1.474       .  S
C1157      C1158   1.394       .  A
C1157     Br1169   1.921       .  S
C1158      H1161   1.083       .  S
C1160      C1162   1.402       .  A
C1160      C1166   1.408       .  A
C1162      C1163   1.398       .  A
C1162      H1167   1.084       .  S
C1163      C1164   1.407       .  A
C1163     Br1171   1.918       .  S
C1164      C1165   1.401       .  A
C1165      C1166   1.396       .  A
C1165      H1168   1.084       .  S
C1166     Br1172   1.921       .  S
C1173      C1174   1.419       .  A
C1173      C1178   1.406       .  A
C1174      C1175   1.399       .  A
C1174     Br1190   1.923       .  S
C1175      C1176   1.399       .  A
C1175      H1179   1.084       .  S
C1176      C1177   1.408       .  A
C1176      C1180   1.478       .  S
C1177      C1178   1.400       .  A
C1177     Br1189   1.918       .  S
C1178      H1181   1.083       .  S
C1180      C1182   1.404       .  A
C1180      C1186   1.405       .  A
C1182      C1183   1.404       .  A
C1182      H1187   1.083       .  S
C1183      C1184   1.411       .  A
C1183     Br1191   1.917       .  S
C1184      C1185   1.403       .  A
C1185      C1186   1.395       .  A
C1185      H1188   1.084       .  S
C1186     Br1192   1.919       .  S
C1193      C1194   1.419       .  A
C1193      C1198   1.407   1_565  A
C1194      C1195   1.403       .  A
C1194     Br1210   1.922       .  S
C1195      C1196   1.401       .  A
C1195      H1199   1.083       .  S
C1196      C1197   1.409   1_565  A
C1196      C1200   1.487       .  S
C1197      C1198   1.403       .  A
C1197     Br1209   1.920       .  S
C1198      H1201   1.083       .  S
C1200      C1202   1.401   1_565  A
C1200      C1206   1.410       .  A
C1202      C1203   1.400       .  A
C1202      H1207   1.084       .  S
C1203      C1204   1.411   1_545  A
C1203     Br1211   1.914       .  S
C1204      C1205   1.405       .  A
C1205      C1206   1.405       .  A
C1205      H1208   1.083       .  S
C1206     Br1212   1.918       .  S
C1213      C1214   1.414   1_545  A
C1213      C1218   1.408       .  A
C1214      C1215   1.401       .  A
C1214     Br1230   1.920       .  S
C1215      C1216   1.402   1_565  A
C1215      H1219   1.084       .  S
C1216      C1217   1.409       .  A
C1216      C1220   1.485       .  S
C1217      C1218   1.403       .  A
C1217     Br1229   1.920       .  S
C1218      H1221   1.084       .  S
C1220      C1222   1.402       .  A
C1220      C1226   1.411   1_545  A
C1222      C1223   1.400       .  A
C1222      H1227   1.083       .  S
C1223      C1224   1.411       .  A
C1223     Br1231   1.916       .  S
C1224      C1225   1.403   1_545  A
C1225      C1226   1.403       .  A
C1225      H1228   1.083       .  S
C1226     Br1232   1.918       .  S
C1233      C1234   1.415       .  A
C1233      C1238   1.406   1_545  A
C1234      C1235   1.401       .  A
C1234     Br1250   1.922       .  S
C1235      C1236   1.403   1_545  A
C1235      H1239   1.084       .  S
C1236      C1237   1.410       .  A
C1236      C1240   1.485   1_565  S
C1237      C1238   1.401       .  A
C1237     Br1249   1.918       .  S
C1238      H1241   1.084       .  S
C1240      C1242   1.404   1_545  A
C1240      C1246   1.410       .  A
C1242      C1243   1.402       .  A
C1242      H1247   1.083       .  S
C1243      C1244   1.408   1_565  A
C1243     Br1251   1.911       .  S
C1244      C1245   1.402       .  A
C1245      C1246   1.401       .  A
C1245      H1248   1.083       .  S
C1246     Br1252   1.919       .  S
C1253      C1254   1.409   1_565  A
C1253      C1258   1.402       .  A
C1254      C1255   1.393       .  A
C1254     Br1270   1.918       .  S
C1255      C1256   1.400   1_545  A
C1255      H1259   1.084       .  S
C1256      C1257   1.410       .  A
C1256      C1260   1.475       .  S
C1257      C1258   1.400       .  A
C1257     Br1269   1.920       .  S
C1258      H1261   1.084       .  S
C1260      C1262   1.404       .  A
C1260      C1266   1.407   1_565  A
C1262      C1263   1.397       .  A
C1262      H1267   1.084       .  S
C1263      C1264   1.408       .  A
C1263     Br1271   1.920       .  S
C1264      C1265   1.404   1_565  A
C1265      C1266   1.396       .  A
C1265      H1268   1.084       .  S
C1266     Br1272   1.919       .  S
C1273      C1274   1.413       .  A
C1273      C1278   1.404   1_565  A
C1274      C1275   1.404       .  A
C1274     Br1290   1.917       .  S
C1275      C1276   1.404       .  A
C1275      H1279   1.083       .  S
C1276      C1277   1.407   1_565  A
C1276      C1280   1.482       .  S
C1277      C1278   1.398       .  A
C1277     Br1289   1.918       .  S
C1278      H1281   1.083       .  S
C1280      C1282   1.400       .  A
C1280      C1286   1.408       .  A
C1282      C1283   1.400   1_565  A
C1282      H1287   1.084   1_565  S
C1283      C1284   1.416   1_545  A
C1283     Br1291   1.923       .  S
C1284      C1285   1.408       .  A
C1285      C1286   1.403       .  A
C1285      H1288   1.083       .  S
C1286     Br1292   1.919       .  S
C1293      C1294   1.407       .  A
C1293      C1298   1.403       .  A
C1294      C1295   1.394       .  A
C1294     Br1310   1.914       .  S
C1295      C1296   1.399       .  A
C1295      H1299   1.084       .  S
C1296      C1297   1.404       .  A
C1296      C1300   1.463       .  S
C1297      C1298   1.394       .  A
C1297     Br1309   1.919       .  S
C1298      H1301   1.084       .  S
C1300      C1302   1.397       .  A
C1300      C1306   1.405       .  A
C1302      C1303   1.395       .  A
C1302      H1307   1.084       .  S
C1303      C1304   1.416       .  A
C1303     Br1311   1.922       .  S
C1304      C1305   1.402       .  A
C1305      C1306   1.391       .  A
C1305      H1308   1.084       .  S
C1306     Br1312   1.919       .  S
C1313      C1314   1.409       .  A
C1313      C1318   1.405       .  A
C1314      C1315   1.403       .  A
C1314     Br1330   1.916       .  S
C1315      C1316   1.403       .  A
C1315      H1319   1.083       .  S
C1316      C1317   1.404       .  A
C1316      C1320   1.474       .  S
C1317      C1318   1.394       .  A
C1317     Br1329   1.920       .  S
C1318      H1321   1.084       .  S
C1320      C1322   1.397       .  A
C1320      C1326   1.408       .  A
C1322      C1323   1.396       .  A
C1322      H1327   1.084       .  S
C1323      C1324   1.415       .  A
C1323     Br1331   1.919       .  S
C1324      C1325   1.404       .  A
C1325      C1326   1.400       .  A
C1325      H1328   1.083       .  S
C1326     Br1332   1.918       .  S
C1333      C1334   1.416       .  A
C1333      C1338   1.404       .  A
C1334      C1335   1.398       .  A
C1334     Br1350   1.922       .  S
C1335      C1336   1.399       .  A
C1335      H1339   1.084       .  S
C1336      C1337   1.408       .  A
C1336      C1340   1.477       .  S
C1337      C1338   1.401       .  A
C1337     Br1349   1.918       .  S
C1338      H1341   1.083       .  S
C1340      C1342   1.405       .  A
C1340      C1346   1.405       .  A
C1342      C1343   1.403       .  A
C1342      H1347   1.083       .  S
C1343      C1344   1.408       .  A
C1343     Br1351   1.917       .  S
C1344      C1345   1.402       .  A
C1345      C1346   1.394       .  A
C1345      H1348   1.084       .  S
C1346     Br1352   1.919       .  S
C1353      C1354   1.416       .  A
C1353      C1358   1.404       .  A
C1354      C1355   1.395       .  A
C1354     Br1370   1.920       .  S
C1355      C1356   1.396       .  A
C1355      H1359   1.084       .  S
C1356      C1357   1.408       .  A
C1356      C1360   1.472       .  S
C1357      C1358   1.400       .  A
C1357     Br1369   1.920       .  S
C1358      H1361   1.084       .  S
C1360      C1362   1.402       .  A
C1360      C1366   1.406       .  A
C1362      C1363   1.397       .  A
C1362      H1367   1.083       .  S
C1363      C1364   1.406       .  A
C1363     Br1371   1.915       .  S
C1364      C1365   1.403       .  A
C1365      C1366   1.397       .  A
C1365      H1368   1.084       .  S
C1366     Br1372   1.919       .  S
C1373      C1374   1.422       .  A
C1373      C1378   1.405   1_545  A
C1374      C1375   1.394       .  A
C1374     Br1390   1.926       .  S
C1375      C1376   1.395       .  A
C1375      H1379   1.084       .  S
C1376      C1377   1.406   1_545  A
C1376      C1380   1.469       .  S
C1377      C1378   1.397       .  A
C1377     Br1389   1.918       .  S
C1378      H1381   1.083       .  S
C1380      C1382   1.400   1_545  A
C1380      C1386   1.404       .  A
C1382      C1383   1.399       .  A
C1382      H1387   1.084       .  S
C1383      C1384   1.410   1_565  A
C1383     Br1391   1.916       .  S
C1384      C1385   1.404       .  A
C1385      C1386   1.395       .  A
C1385      H1388   1.083       .  S
C1386     Br1392   1.920       .  S
C1393      C1394   1.413   1_565  A
C1393      C1398   1.409       .  A
C1394      C1395   1.402       .  A
C1394     Br1410   1.920       .  S
C1395      C1396   1.403       .  A
C1395      H1399   1.083       .  S
C1396      C1397   1.403   1_545  A
C1396      C1400   1.475       .  S
C1397      C1398   1.397       .  A
C1397     Br1409   1.919       .  S
C1398      H1401   1.084       .  S
C1400      C1402   1.399   1_545  A
C1400      C1406   1.409       .  A
C1402      C1403   1.394       .  A
C1402      H1407   1.084       .  S
C1403      C1404   1.410       .  A
C1403     Br1411   1.920       .  S
C1404      C1405   1.404   1_565  A
C1405      C1406   1.403       .  A
C1405      H1408   1.083       .  S
C1406     Br1412   1.918       .  S
C1413      C1414   1.408       .  A
C1413      C1418   1.401   1_545  A
C1414      C1415   1.392       .  A
C1414     Br1430   1.922       .  S
C1415      C1416   1.400   1_545  A
C1415      H1419   1.084       .  S
C1416      C1417   1.406       .  A
C1416      C1420   1.466       .  S
C1417      C1418   1.396       .  A
C1417     Br1429   1.918       .  S
C1418      H1421   1.083       .  S
C1420      C1422   1.402       .  A
C1420      C1426   1.402   1_565  A
C1422      C1423   1.397       .  A
C1422      H1427   1.084       .  S
C1423      C1424   1.410       .  A
C1423     Br1431   1.920       .  S
C1424      C1425   1.406   1_565  A
C1425      C1426   1.393       .  A
C1425      H1428   1.084       .  S
C1426     Br1432   1.920       .  S
C1433      C1434   1.413       .  A
C1433      C1438   1.403       .  A
C1434      C1435   1.395       .  A
C1434     Br1450   1.921       .  S
C1435      C1436   1.398       .  A
C1435      H1439   1.084       .  S
C1436      C1437   1.407       .  A
C1436      C1440   1.471       .  S
C1437      C1438   1.399       .  A
C1437     Br1449   1.918   1_565  S
C1438      H1441   1.082   1_565  S
C1440      C1442   1.403       .  A
C1440      C1446   1.402       .  A
C1442      C1443   1.399       .  A
C1442      H1447   1.084       .  S
C1443      C1444   1.410       .  A
C1443     Br1451   1.919   1_565  S
C1444      C1445   1.409       .  A
C1445      C1446   1.394       .  A
C1445      H1448   1.084       .  S
C1446     Br1452   1.918       .  S
C1453      C1454   1.417       .  A
C1453      C1458   1.409       .  A
C1454      C1455   1.405       .  A
C1454     Br1470   1.920       .  S
C1455      C1456   1.403       .  A
C1455      H1459   1.084       .  S
C1456      C1457   1.406       .  A
C1456      C1460   1.485       .  S
C1457      C1458   1.401       .  A
C1457     Br1469   1.918       .  S
C1458      H1461   1.083       .  S
C1460      C1462   1.403       .  A
C1460      C1466   1.408       .  A
C1462      C1463   1.402       .  A
C1462      H1467   1.083       .  S
C1463      C1464   1.410       .  A
C1463     Br1471   1.916       .  S
C1464      C1465   1.405       .  A
C1465      C1466   1.402       .  A
C1465      H1468   1.083       .  S
C1466     Br1472   1.917       .  S
C1473      C1474   1.414       .  A
C1473      C1478   1.405       .  A
C1474      C1475   1.402       .  A
C1474     Br1490   1.921       .  S
C1475      C1476   1.403       .  A
C1475      H1479   1.084       .  S
C1476      C1477   1.408       .  A
C1476      C1480   1.484       .  S
C1477      C1478   1.401       .  A
C1477     Br1489   1.918       .  S
C1478      H1481   1.084       .  S
C1480      C1482   1.404       .  A
C1480      C1486   1.408       .  A
C1482      C1483   1.404       .  A
C1482      H1487   1.083       .  S
C1483      C1484   1.411       .  A
C1483     Br1491   1.914       .  S
C1484      C1485   1.405       .  A
C1485      C1486   1.399       .  A
C1485      H1488   1.083       .  S
C1486     Br1492   1.918       .  S
C1493      C1494   1.417       .  A
C1493      C1498   1.409       .  A
C1494      C1495   1.403       .  A
C1494     Br1510   1.922       .  S
C1495      C1496   1.401       .  A
C1495      H1499   1.083       .  S
C1496      C1497   1.408       .  A
C1496      C1500   1.486       .  S
C1497      C1498   1.405       .  A
C1497     Br1509   1.919       .  S
C1498      H1501   1.083       .  S
C1500      C1502   1.402       .  A
C1500      C1506   1.408       .  A
C1502      C1503   1.402       .  A
C1502      H1507   1.083       .  S
C1503      C1504   1.412       .  A
C1503     Br1511   1.915       .  S
C1504      C1505   1.407       .  A
C1505      C1506   1.404       .  A
C1505      H1508   1.083       .  S
C1506     Br1512   1.918       .  S
C1513      C1514   1.412       .  A
C1513      C1518   1.405       .  A
C1514      C1515   1.402       .  A
C1514     Br1530   1.915       .  S
C1515      C1516   1.402       .  A
C1515      H1519   1.083       .  S
C1516      C1517   1.408       .  A
C1516      C1520   1.484       .  S
C1517      C1518   1.403       .  A
C1517     Br1529   1.917       .  S
C1518      H1521   1.083       .  S
C1520      C1522   1.399       .  A
C1520      C1526   1.406       .  A
C1522      C1523   1.402       .  A
C1522      H1527   1.084       .  S
C1523      C1524   1.422       .  A
C1523     Br1531   1.924       .  S
C1524      C1525   1.412       .  A
C1525      C1526   1.404       .  A
C1525      H1528   1.083       .  S
C1526     Br1532   1.919       .  S
C1533      C1534   1.412       .  A
C1533      C1538   1.405       .  A
C1534      C1535   1.399       .  A
C1534     Br1550   1.920       .  S
C1535      C1536   1.400       .  A
C1535      H1539   1.084       .  S
C1536      C1537   1.409   1_655  A
C1536      C1540   1.481       .  S
C1537      C1538   1.404   1_455  A
C1537     Br1549   1.919       .  S
C1538      H1541   1.083   1_655  S
C1540      C1542   1.403       .  A
C1540      C1546   1.406       .  A
C1542      C1543   1.401   1_655  A
C1542      H1547   1.084   1_655  S
C1543      C1544   1.412   1_455  A
C1543     Br1551   1.918       .  S
C1544      C1545   1.410       .  A
C1545      C1546   1.400       .  A
C1545      H1548   1.084       .  S
C1546     Br1552   1.918       .  S
C1553      C1554   1.408   1_655  A
C1553      C1558   1.404       .  A
C1554      C1555   1.397       .  A
C1554     Br1570   1.917       .  S
C1555      C1556   1.400   1_455  A
C1555      H1559   1.084       .  S
C1556      C1557   1.409       .  A
C1556      C1560   1.478       .  S
C1557      C1558   1.403       .  A
C1557     Br1569   1.919       .  S
C1558      H1561   1.083       .  S
C1560      C1562   1.403       .  A
C1560      C1566   1.404   1_655  A
C1562      C1563   1.400       .  A
C1562      H1567   1.084       .  S
C1563      C1564   1.413       .  A
C1563     Br1571   1.921       .  S
C1564      C1565   1.408   1_655  A
C1565      C1566   1.398       .  A
C1565      H1568   1.084       .  S
C1566     Br1572   1.917       .  S
C1573      C1574   1.414       .  A
C1573      C1578   1.411   1_455  A
C1574      C1575   1.398       .  A
C1574     Br1590   1.922       .  S
C1575      C1576   1.401       .  A
C1575      H1579   1.084       .  S
C1576      C1577   1.403   1_455  A
C1576      C1580   1.473       .  S
C1577      C1578   1.398       .  A
C1577     Br1589   1.919       .  S
C1578      H1581   1.084       .  S
C1580      C1582   1.398   1_455  A
C1580      C1586   1.409       .  A
C1582      C1583   1.393       .  A
C1582      H1587   1.084       .  S
C1583      C1584   1.412   1_655  A
C1583     Br1591   1.921       .  S
C1584      C1585   1.403       .  A
C1585      C1586   1.402       .  A
C1585      H1588   1.083       .  S
C1586     Br1592   1.918       .  S
C1593      C1594   1.409       .  A
C1593      C1598   1.403   1_455  A
C1594      C1595   1.396       .  A
C1594     Br1610   1.919       .  S
C1595      C1596   1.400       .  A
C1595      H1599   1.084       .  S
C1596      C1597   1.408   1_455  A
C1596      C1600   1.475       .  S
C1597      C1598   1.400       .  A
C1597     Br1609   1.918       .  S
C1598      H1601   1.083       .  S
C1600      C1602   1.405   1_455  A
C1600      C1606   1.403       .  A
C1602      C1603   1.401       .  A
C1602      H1607   1.084       .  S
C1603      C1604   1.412   1_655  A
C1603     Br1611   1.921       .  S
C1604      C1605   1.408       .  A
C1605      C1606   1.393       .  A
C1605      H1608   1.084       .  S
C1606     Br1612   1.918       .  S
C1613      C1614   1.406       .  A
C1613      C1618   1.400   1_455  A
C1614      C1615   1.396       .  A
C1614     Br1630   1.918       .  S
C1615      C1616   1.403       .  A
C1615      H1619   1.083       .  S
C1616      C1617   1.412   1_455  A
C1616      C1620   1.478       .  S
C1617      C1618   1.399       .  A
C1617     Br1629   1.922       .  S
C1618      H1621   1.084       .  S
C1620      C1622   1.406   1_455  A
C1620      C1626   1.408       .  A
C1622      C1623   1.396       .  A
C1622      H1627   1.084       .  S
C1623      C1624   1.407   1_655  A
C1623     Br1631   1.921       .  S
C1624      C1625   1.404       .  A
C1625      C1626   1.395       .  A
C1625      H1628   1.084       .  S
C1626     Br1632   1.919       .  S
C1633      C1634   1.408   1_655  A
C1633      C1638   1.403       .  A
C1634      C1635   1.400       .  A
C1634     Br1650   1.918       .  S
C1635      C1636   1.403   1_455  A
C1635      H1639   1.083       .  S
C1636      C1637   1.406       .  A
C1636      C1640   1.475       .  S
C1637      C1638   1.395       .  A
C1637     Br1649   1.920       .  S
C1638      H1641   1.084       .  S
C1640      C1642   1.397       .  A
C1640      C1646   1.409   1_655  A
C1642      C1643   1.394       .  A
C1642      H1647   1.084       .  S
C1643      C1644   1.417       .  A
C1643     Br1651   1.921       .  S
C1644      C1645   1.405   1_655  A
C1645      C1646   1.401       .  A
C1645      H1648   1.083       .  S
C1646     Br1652   1.918       .  S
C1653      C1654   1.416       .  A
C1653      C1658   1.403       .  A
C1654      C1655   1.393       .  A
C1654     Br1670   1.914       .  S
C1655      C1656   1.395       .  A
C1655      H1659   1.084       .  S
C1656      C1657   1.409       .  A
C1656      C1660   1.472       .  S
C1657      C1658   1.400       .  A
C1657     Br1669   1.918       .  S
C1658      H1661   1.083       .  S
C1660      C1662   1.402       .  A
C1660      C1666   1.405       .  A
C1662      C1663   1.398       .  A
C1662      H1667   1.084       .  S
C1663      C1664   1.409       .  A
C1663     Br1671   1.916       .  S
C1664      C1665   1.403       .  A
C1665      C1666   1.394       .  A
C1665      H1668   1.084       .  S
C1666     Br1672   1.919       .  S
C1673      C1674   1.421       .  A
C1673      C1678   1.408       .  A
C1674      C1675   1.395       .  A
C1674     Br1690   1.923       .  S
C1675      C1676   1.395       .  A
C1675      H1679   1.084       .  S
C1676      C1677   1.407       .  A
C1676      C1680   1.474       .  S
C1677      C1678   1.402       .  A
C1677     Br1689   1.918       .  S
C1678      H1681   1.083       .  S
C1680      C1682   1.402       .  A
C1680      C1686   1.404       .  A
C1682      C1683   1.402       .  A
C1682      H1687   1.083       .  S
C1683      C1684   1.411       .  A
C1683     Br1691   1.916       .  S
C1684      C1685   1.406       .  A
C1685      C1686   1.396       .  A
C1685      H1688   1.084       .  S
C1686     Br1692   1.920       .  S
C1693      C1694   1.410       .  A
C1693      C1698   1.408       .  A
C1694      C1695   1.401       .  A
C1694     Br1710   1.919       .  S
C1695      C1696   1.404       .  A
C1695      H1699   1.084       .  S
C1696      C1697   1.404       .  A
C1696      C1700   1.475       .  S
C1697      C1698   1.396       .  A
C1697     Br1709   1.920       .  S
C1698      H1701   1.084       .  S
C1700      C1702   1.399       .  A
C1700      C1706   1.408       .  A
C1702      C1703   1.395       .  A
C1702      H1707   1.084       .  S
C1703      C1704   1.411       .  A
C1703     Br1711   1.920       .  S
C1704      C1705   1.403       .  A
C1705      C1706   1.400       .  A
C1705      H1708   1.083       .  S
C1706     Br1712   1.919       .  S
C1713      C1714   1.422       .  A
C1713      C1718   1.407       .  A
C1714      C1715   1.397       .  A
C1714     Br1730   1.923       .  S
C1715      C1716   1.397       .  A
C1715      H1719   1.084       .  S
C1716      C1717   1.409       .  A
C1716      C1720   1.480       .  S
C1717      C1718   1.402       .  A
C1717     Br1729   1.919       .  S
C1718      H1721   1.083       .  S
C1720      C1722   1.403       .  A
C1720      C1726   1.410       .  A
C1722      C1723   1.399       .  A
C1722      H1727   1.083       .  S
C1723      C1724   1.406       .  A
C1723     Br1731   1.917       .  S
C1724      C1725   1.401       .  A
C1725      C1726   1.398       .  A
C1725      H1728   1.084       .  S
C1726     Br1732   1.919       .  S
C1733      C1734   1.417       .  A
C1733      C1738   1.411       .  A
C1734      C1735   1.399       .  A
C1734     Br1750   1.923       .  S
C1735      C1736   1.400       .  A
C1735      H1739   1.084       .  S
C1736      C1737   1.401       .  A
C1736      C1740   1.470       .  S
C1737      C1738   1.394       .  A
C1737     Br1749   1.919       .  S
C1738      H1741   1.082       .  S
C1740      C1742   1.398       .  A
C1740      C1746   1.407       .  A
C1742      C1743   1.394       .  A
C1742      H1747   1.084       .  S
C1743      C1744   1.412       .  A
C1743     Br1751   1.922       .  S
C1744      C1745   1.402       .  A
C1745      C1746   1.398       .  A
C1745      H1748   1.083       .  S
C1746     Br1752   1.918       .  S
C1753      C1754   1.415       .  A
C1753      C1758   1.407       .  A
C1754      C1755   1.400       .  A
C1754     Br1770   1.915       .  S
C1755      C1756   1.398       .  A
C1755      H1759   1.084       .  S
C1756      C1757   1.410       .  A
C1756      C1760   1.482       .  S
C1757      C1758   1.405       .  A
C1757     Br1769   1.920       .  S
C1758      H1761   1.083       .  S
C1760      C1762   1.402       .  A
C1760      C1766   1.411       .  A
C1762      C1763   1.399       .  A
C1762      H1767   1.083       .  S
C1763      C1764   1.407       .  A
C1763     Br1771   1.919       .  S
C1764      C1765   1.401       .  A
C1765      C1766   1.402       .  A
C1765      H1768   1.083       .  S
C1766     Br1772   1.918       .  S
C1773      C1774   1.408       .  A
C1773      C1778   1.406       .  A
C1774      C1775   1.401       .  A
C1774     Br1790   1.920       .  S
C1775      C1776   1.406       .  A
C1775      H1779   1.083       .  S
C1776      C1777   1.408       .  A
C1776      C1780   1.482       .  S
C1777      C1778   1.399       .  A
C1777     Br1789   1.920       .  S
C1778      H1781   1.084       .  S
C1780      C1782   1.402       .  A
C1780      C1786   1.412       .  A
C1782      C1783   1.397       .  A
C1782      H1787   1.083       .  S
C1783      C1784   1.410       .  A
C1783     Br1791   1.919       .  S
C1784      C1785   1.400       .  A
C1785      C1786   1.400       .  A
C1785      H1788   1.083       .  S
C1786     Br1792   1.917       .  S
C1793      C1794   1.418       .  A
C1793      C1798   1.405       .  A
C1794      C1795   1.399       .  A
C1794     Br1810   1.922       .  S
C1795      C1796   1.399       .  A
C1795      H1799   1.084       .  S
C1796      C1797   1.406       .  A
C1796      C1800   1.475       .  S
C1797      C1798   1.398       .  A
C1797     Br1809   1.918       .  S
C1798      H1801   1.083       .  S
C1800      C1802   1.404       .  A
C1800      C1806   1.407       .  A
C1802      C1803   1.399       .  A
C1802      H1807   1.083       .  S
C1803      C1804   1.406       .  A
C1803     Br1811   1.918       .  S
C1804      C1805   1.402       .  A
C1805      C1806   1.396       .  A
C1805      H1808   1.084       .  S
C1806     Br1812   1.918       .  S
C1813      C1814   1.407       .  A
C1813      C1818   1.403   1_655  A
C1814      C1815   1.399       .  A
C1814     Br1830   1.914       .  S
C1815      C1816   1.402       .  A
C1815      H1819   1.084       .  S
C1816      C1817   1.405   1_655  A
C1816      C1820   1.474   1_655  S
C1817      C1818   1.399       .  A
C1817     Br1829   1.918       .  S
C1818      H1821   1.083       .  S
C1820      C1822   1.401       .  A
C1820      C1826   1.404   1_455  A
C1822      C1823   1.400       .  A
C1822      H1827   1.084       .  S
C1823      C1824   1.417       .  A
C1823     Br1831   1.922       .  S
C1824      C1825   1.408   1_455  A
C1825      C1826   1.395       .  A
C1825      H1828   1.083       .  S
C1826     Br1832   1.919       .  S
C1833      C1834   1.423       .  A
C1833      C1838   1.410       .  A
C1834      C1835   1.406       .  A
C1834     Br1850   1.924       .  S
C1835      C1836   1.402       .  A
C1835      H1839   1.084       .  S
C1836      C1837   1.406       .  A
C1836      C1840   1.488       .  S
C1837      C1838   1.402       .  A
C1837     Br1849   1.917   1_455  S
C1838      H1841   1.083   1_455  S
C1840      C1842   1.406   1_455  A
C1840      C1846   1.409       .  A
C1842      C1843   1.406       .  A
C1842      H1847   1.083       .  S
C1843      C1844   1.408   1_655  A
C1843     Br1851   1.915       .  S
C1844      C1845   1.403       .  A
C1845      C1846   1.402       .  A
C1845      H1848   1.083       .  S
C1846     Br1852   1.916       .  S
C1853      C1854   1.414       .  A
C1853      C1858   1.404   1_455  A
C1854      C1855   1.401       .  A
C1854     Br1870   1.922       .  S
C1855      C1856   1.403       .  A
C1855      H1859   1.083       .  S
C1856      C1857   1.410   1_455  A
C1856      C1860   1.482       .  S
C1857      C1858   1.398       .  A
C1857     Br1869   1.919       .  S
C1858      H1861   1.084       .  S
C1860      C1862   1.402   1_455  A
C1860      C1866   1.411       .  A
C1862      C1863   1.399       .  A
C1862      H1867   1.084       .  S
C1863      C1864   1.408       .  A
C1863     Br1871   1.914       .  S
C1864      C1865   1.404   1_655  A
C1865      C1866   1.401       .  A
C1865      H1868   1.082       .  S
C1866     Br1872   1.919       .  S
C1873      C1874   1.413       .  A
C1873      C1878   1.405   1_455  A
C1874      C1875   1.395       .  A
C1874     Br1890   1.921       .  S
C1875      C1876   1.398       .  A
C1875      H1879   1.084       .  S
C1876      C1877   1.407   1_455  A
C1876      C1880   1.475       .  S
C1877      C1878   1.404       .  A
C1877     Br1889   1.918       .  S
C1878      H1881   1.083       .  S
C1880      C1882   1.405   1_455  A
C1880      C1886   1.402       .  A
C1882      C1883   1.403       .  A
C1882      H1887   1.083       .  S
C1883      C1884   1.412       .  A
C1883     Br1891   1.921       .  S
C1884      C1885   1.406   1_655  A
C1885      C1886   1.393       .  A
C1885      H1888   1.084       .  S
C1886     Br1892   1.917       .  S
C1893      C1894   1.408       .  A
C1893      C1898   1.402   1_655  A
C1894      C1895   1.399       .  A
C1894     Br1910   1.918       .  S
C1895      C1896   1.401       .  A
C1895      H1899   1.083       .  S
C1896      C1897   1.409   1_655  A
C1896      C1900   1.478       .  S
C1897      C1898   1.401       .  A
C1897     Br1909   1.918       .  S
C1898      H1901   1.084       .  S
C1900      C1902   1.404   1_655  A
C1900      C1906   1.400       .  A
C1902      C1903   1.405       .  A
C1902      H1907   1.084       .  S
C1903      C1904   1.418   1_455  A
C1903     Br1911   1.921       .  S
C1904      C1905   1.413       .  A
C1905      C1906   1.395       .  A
C1905      H1908   1.083       .  S
C1906     Br1912   1.918       .  S
C1913      C1914   1.408       .  A
C1913      C1918   1.403   1_455  A
C1914      C1915   1.405       .  A
C1914     Br1930   1.915       .  S
C1915      C1916   1.405       .  A
C1915      H1919   1.083       .  S
C1916      C1917   1.409   1_455  A
C1916      C1920   1.487       .  S
C1917      C1918   1.402       .  A
C1917     Br1929   1.919       .  S
C1918      H1921   1.082       .  S
C1920      C1922   1.399       .  A
C1920      C1926   1.406       .  A
C1922      C1923   1.404       .  A
C1922      H1927   1.084       .  S
C1923      C1924   1.427       .  A
C1923     Br1931   1.923       .  S
C1924      C1925   1.411       .  A
C1925      C1926   1.402       .  A
C1925      H1928   1.082       .  S
C1926     Br1932   1.918       .  S
