geometry optimzed in LAMMPS
_audit_creation_date              2020-11-30 
_audit_creation_method            'lammps2cif' 
_symmetry_space_group_name_H-M    'P1' 
_symmetry_Int_Tables_number       1 
_symmetry_cell_setting            triclinic 
loop_ 
_symmetry_equiv_pos_as_xyz 
  x,y,z 
_cell_length_a                    33.08358249 
_cell_length_b                    33.24871286143629 
_cell_length_c                    33.22810318531556 
_cell_angle_alpha                 89.84843922692178 
_cell_angle_beta                  89.84492618189134 
_cell_angle_gamma                 90.05231838665784 
loop_ 
_atom_site_label 
_atom_site_type_symbol 
_atom_site_fract_x 
_atom_site_fract_y 
_atom_site_fract_z 
_atom_site_charge 
C1          C  0.98493952  0.22130978  0.27632717     0.02700
C2          C  0.97962291  0.22790125  0.23444115    -0.13400
C3          C  0.98914783  0.26610528  0.21794958     0.00200
C4          C  0.00408702  0.29626577  0.24285223    -0.12000
C5          C  0.00844022  0.28993798  0.28376444     0.02700
C6          C  0.99918210  0.25268739  0.30049083    -0.11400
H7          H  0.96773717  0.20429451  0.21545803     0.08300
H8          H  0.01034946  0.32593370  0.23054317     0.05800
H9          H  0.00201062  0.24838885  0.33273312     0.05700
O10         O  0.02685967  0.45677919  0.38408010    -0.86900
O11         O  0.02590111  0.42931380  0.61091128    -0.87100
O12         O  0.09265815  0.39753847  0.49159486    -0.88700
O13         O  0.95904787  0.39177505  0.49079735    -0.87500
O14         O  0.90887508  0.43929409  0.49218087    -0.87100
O15         O  0.13931676  0.44768719  0.50177446    -0.88400
O16         O  0.02869251  0.38779859  0.55569366    -0.86900
O17         O  0.02904706  0.40316091  0.42791499    -0.86500
Zr18       Zr  0.02468071  0.42769012  0.49571516     2.84300
O19         O  0.98081001  0.46090302  0.54010010    -1.08500
O20         O  0.06529570  0.47381614  0.46104061    -1.09200
C21         C  0.02835436  0.41894693  0.39255702     1.06200
C22         C  0.02932127  0.39467856  0.59372560     1.06200
C23         C  0.12935616  0.41066385  0.49551328     1.09100
C24         C  0.92132434  0.40263632  0.48959292     1.06900
H25         H  0.08053497  0.44709859  0.55710517     0.32500
O26         O  0.06270578  0.46459022  0.54222089    -1.29400
H27         H  0.96800651  0.45535851  0.43846347     0.32100
O28         O  0.98377578  0.47055768  0.45756566    -1.31100
O29         O  0.00183266  0.55613163  0.62666080    -0.86900
O30         O  0.01648073  0.58548836  0.40064194    -0.88400
O31         O  0.13572398  0.50713202  0.57154964    -0.87000
O32         O  0.90431969  0.49891895  0.56445717    -0.87000
O33         O  0.90895647  0.51346625  0.43567945    -0.86700
O34         O  0.13979324  0.51628206  0.44455929    -0.86500
O35         O  0.08578023  0.62395438  0.52128599    -0.86900
O36         O  0.94981129  0.61892003  0.51599400    -0.86400
O37         O  0.13485404  0.57585590  0.51417750    -0.87400
O38         O  0.90382450  0.56810435  0.50756096    -0.86600
O39         O  0.08671946  0.50412360  0.62053650    -0.87000
O40         O  0.09295566  0.52286189  0.39417846    -0.86700
O41         O  0.95898709  0.52029611  0.38849184    -0.86400
O42         O  0.94971475  0.49474420  0.61653883    -0.86800
O43         O  0.00023843  0.61023997  0.58349122    -0.87100
O44         O  0.00705572  0.62787100  0.45458168    -0.88400
Zr45       Zr  0.01934406  0.49820243  0.58674082     2.83100
Zr46       Zr  0.02463988  0.51761613  0.42409209     2.83500
Zr47       Zr  0.10240063  0.51116094  0.50732999     2.84100
Zr48       Zr  0.94065308  0.50463535  0.50126560     2.83400
Zr49       Zr  0.01874701  0.58930116  0.51542434     2.84200
O50         O  0.98191088  0.55131051  0.46864861    -1.09000
O51         O  0.06007682  0.54568208  0.55285068    -1.08500
C52         C  0.99170353  0.59229831  0.61711494     1.06200
C53         C  0.00725045  0.61940023  0.41677786     1.08800
C54         C  0.12429855  0.50570887  0.60853956     1.06400
C55         C  0.91306761  0.49619276  0.60215378     1.06700
C56         C  0.92117927  0.51841881  0.39903523     1.06300
C57         C  0.12980547  0.52051093  0.40732935     1.05900
C58         C  0.12350199  0.61254954  0.51913848     1.06300
C59         C  0.91297082  0.60557616  0.51259030     1.05800
H60         H  0.07868924  0.57505432  0.45590767     0.32500
O61         O  0.06214822  0.55580460  0.47024847    -1.30100
H62         H  0.95913709  0.55299706  0.56297534     0.32500
O63         O  0.97927296  0.54023305  0.54686619    -1.31500
C64         C  0.95758519  0.70809555  0.76481447     0.02700
C65         C  0.91827645  0.69659213  0.75357992    -0.13400
C66         C  0.90824376  0.69799877  0.71297197     0.00200
C67         C  0.92335984  0.73112419  0.69155301    -0.12000
C68         C  0.96124205  0.74720587  0.70146750     0.02700
C69         C  0.97965320  0.73401081  0.73812546    -0.11400
H70         H  0.90199491  0.67511411  0.77215711     0.08300
H71         H  0.90995537  0.73937288  0.66311220     0.05800
H72         H  0.01018138  0.74314773  0.74534873     0.05700
C73         C  0.00120326  0.19455081  0.71373430     0.02700
C74         C  0.98929430  0.20962074  0.75233790    -0.13400
C75         C  0.00031739  0.24968907  0.76363089     0.00200
C76         C  0.02072960  0.27368006  0.73578299    -0.12000
C77         C  0.03023525  0.25958985  0.69765181     0.02700
C78         C  0.02347420  0.21953302  0.68800560    -0.11400
H79         H  0.97106863  0.19130027  0.77233021     0.08300
H80         H  0.02611619  0.30512286  0.74274970     0.05800
H81         H  0.03104277  0.20924466  0.65793422     0.05700
C82         C  0.95759476  0.70390964  0.21324997     0.02700
C83         C  0.94505111  0.68166733  0.24694831    -0.13400
C84         C  0.93988798  0.70026380  0.28423959     0.00200
C85         C  0.94058840  0.74178625  0.28685748    -0.12000
C86         C  0.95908056  0.76424408  0.25650536     0.02700
C87         C  0.96724596  0.74548431  0.21869975    -0.11400
H88         H  0.94410307  0.64909356  0.24533859     0.08300
H89         H  0.93664177  0.75532095  0.31637013     0.05800
H90         H  0.98193775  0.76225222  0.19483344     0.05700
O91         O  0.98690679  0.05190457  0.37218381    -0.86900
O92         O  0.98134702  0.03378143  0.60229331    -0.87100
O93         O  0.91248951  0.08486971  0.48424792    -0.88700
O94         O  0.04057777  0.09920468  0.49404520    -0.87500
O95         O  0.09431069  0.05549241  0.49237309    -0.87100
O96         O  0.86801743  0.03306544  0.47208982    -0.88400
O97         O  0.97513989  0.08669318  0.55824350    -0.86900
O98         O  0.97802124  0.09688053  0.42379351    -0.86500
Zr99       Zr  0.97958081  0.05947970  0.48862421     2.84300
O100        O  0.02277171  0.02042835  0.52781721    -1.08500
O101        O  0.94498705  0.01824428  0.44304053    -1.09200
C102        C  0.98181913  0.08767366  0.38593621     1.06200
C103        C  0.97773231  0.07173661  0.59441127     1.06200
C104        C  0.87746857  0.07059780  0.47587268     1.09100
C105        C  0.07856110  0.09077859  0.49442996     1.06900
H106        H  0.92157697  0.02498977  0.54072189     0.32500
O107        O  0.94072078  0.01143511  0.52347388    -1.29400
H108        H  0.04148401  0.04752541  0.43099464     0.32100
O109        O  0.02587508  0.02788414  0.44578523    -1.31100
O110        O  0.98860228  0.90529703  0.59154534    -0.86900
O111        O  0.99539164  0.92398644  0.36193424    -0.88400
O112        O  0.87059093  0.95960446  0.54248218    -0.87000
O113        O  0.09972793  0.98340423  0.55219706    -0.87000
O114        O  0.10323859  0.99720854  0.41952997    -0.86700
O115        O  0.87637135  0.97334762  0.40811507    -0.86500
O116        O  0.93801916  0.86014161  0.45893640    -0.86900
O117        O  0.06826470  0.87493411  0.46842825    -0.86400
O118        O  0.88337873  0.90270003  0.45842433    -0.87400
O119        O  0.10867638  0.93058713  0.47404856    -0.86600
O120        O  0.91831950  0.96195119  0.59231663    -0.87000
O121        O  0.92857000  0.98330736  0.36374283    -0.86700
O122        O  0.05637330  0.99148450  0.36911083    -0.86400
O123        O  0.04961659  0.97224443  0.59881667    -0.86800
O124        O  0.99647055  0.85946561  0.54081789    -0.87100
O125        O  0.00179570  0.87063404  0.40556359    -0.88400
Zr126      Zr  0.98496230  0.97195210  0.56234134     2.83100
Zr127      Zr  0.99134804  0.98557297  0.40132844     2.83500
Zr128      Zr  0.90606292  0.97009603  0.47714381     2.84100
Zr129      Zr  0.06844042  0.98838651  0.48506425     2.83400
Zr130      Zr  0.99810673  0.89755093  0.47542995     2.84200
O131        O  0.03494802  0.94631315  0.43997998    -1.09000
O132        O  0.95024744  0.93045533  0.51653690    -1.08500
C133        C  0.99288400  0.86899595  0.57880865     1.06200
C134        C  0.99848020  0.88604613  0.36964558     1.08800
C135        C  0.88141985  0.95818945  0.58012519     1.06400
C136        C  0.08714232  0.97732301  0.58875991     1.06700
C137        C  0.09268329  0.99609986  0.38192297     1.06300
C138        C  0.89073433  0.97874793  0.37192184     1.05900
C139        C  0.90084493  0.86856935  0.45134006     1.06300
C140        C  0.10297779  0.89295822  0.46845510     1.05800
H141        H  0.94138432  0.92293292  0.41662623     0.32500
O142        O  0.95468570  0.93835315  0.43709725    -1.30100
H143        H  0.05023966  0.92296364  0.53664648     0.32500
O144        O  0.03211087  0.93924981  0.52084387    -1.31500
C145        C  0.23153809  0.27422176  0.49745209     0.02700
C146        C  0.19878192  0.24777548  0.49770811    -0.13400
C147        C  0.20467045  0.20662888  0.49976899     0.00200
C148        C  0.24356338  0.19108935  0.50061326    -0.12000
C149        C  0.27742533  0.21626544  0.50323391     0.02700
C150        C  0.27150206  0.25869927  0.50099665    -0.11400
H151        H  0.16816437  0.25947106  0.49678198     0.08300
H152        H  0.24735165  0.15868426  0.50027568     0.05800
H153        H  0.29700792  0.27901960  0.50270003     0.05700
C154        C  0.79804697  0.28141309  0.46174477     0.02700
C155        C  0.75704894  0.27673492  0.47405921    -0.13400
C156        C  0.73556516  0.24142650  0.46295922     0.00200
C157        C  0.75517451  0.21197427  0.44034375    -0.12000
C158        C  0.79659342  0.21368694  0.43464121     0.02700
C159        C  0.81721583  0.24951849  0.44192831    -0.11400
H160        H  0.74279598  0.29919202  0.49286393     0.08300
H161        H  0.73992552  0.18350035  0.43504933     0.05800
H162        H  0.84968799  0.25040659  0.43733654     0.05700
C163        C  0.75386101  0.79040085  0.48164655     0.02700
C164        C  0.76354048  0.79182276  0.44060737    -0.13400
C165        C  0.79168440  0.76508846  0.42371827     0.00200
C166        C  0.79909710  0.72931704  0.44472373    -0.12000
C167        C  0.79240962  0.72719736  0.48631048     0.02700
C168        C  0.76969481  0.75826007  0.50524867    -0.11400
H169        H  0.75283987  0.81714876  0.42334721     0.08300
H170        H  0.81758355  0.70634301  0.43075410     0.05800
H171        H  0.76507367  0.75780196  0.53750541     0.05700
C172        C  0.24702947  0.73378528  0.50385520     0.02700
C173        C  0.22656975  0.75557305  0.47443429    -0.13400
C174        C  0.24067654  0.79258144  0.46068299     0.00200
C175        C  0.27978985  0.80474045  0.47137873    -0.12000
C176        C  0.30139834  0.78465828  0.50162028     0.02700
C177        C  0.28473085  0.74865633  0.51839676    -0.11400
H178        H  0.19637219  0.74584727  0.46675047     0.08300
H179        H  0.29129364  0.83316544  0.46004137     0.05800
H180        H  0.29993087  0.73345476  0.54288790     0.05700
C181        C  0.77250611  0.00196116  0.24771532     0.02700
C182        C  0.75080547  0.02948906  0.27063046    -0.13400
C183        C  0.71376807  0.04427359  0.25774355     0.00200
C184        C  0.70222472  0.03860439  0.21776882    -0.12000
C185        C  0.72200000  0.01024897  0.19351245     0.02700
C186        C  0.75753980  0.99105721  0.20890789    -0.11400
H187        H  0.76025145  0.03473765  0.30143828     0.08300
H188        H  0.67381829  0.05136897  0.20769799     0.05800
H189        H  0.77247734  0.96781135  0.19167866     0.05700
O190        O  0.45025578  0.12231933  0.50772656    -0.86900
O191        O  0.46930846  0.89263354  0.51577398    -0.87100
O192        O  0.40787261  0.00134005  0.45047412    -0.88700
O193        O  0.41688405  0.00256385  0.58012033    -0.87500
O194        O  0.46778140  0.00581042  0.62715056    -0.87100
O195        O  0.45402884  0.00669537  0.39882343    -0.88400
O196        O  0.41631437  0.93691462  0.51908767    -0.86900
O197        O  0.40544002  0.06996348  0.51365971    -0.86500
Zr198      Zr  0.44404293  0.00599891  0.51349880     2.84300
O199        O  0.49168261  0.97125497  0.55204271    -1.08500
O200        O  0.47785624  0.04885426  0.46914687    -1.09200
C201        C  0.41424214  0.10801438  0.51085928     1.06200
C202        C  0.43098668  0.90064111  0.51879360     1.06200
C203        C  0.41809020  0.00310575  0.41307999     1.09100
C204        C  0.43056503  0.00163980  0.61624598     1.06900
H205        H  0.46904610  0.94849013  0.45609351     0.32500
O206        O  0.48522882  0.96724221  0.47135001    -1.29400
H207        H  0.46551374  0.06667708  0.56897825     0.32100
O208        O  0.48291187  0.05101688  0.55165555    -1.31100
O209        O  0.60117706  0.90599424  0.50849412    -0.86900
O210        O  0.57727474  0.13461116  0.50110138    -0.88400
O211        O  0.52573238  0.94291655  0.39613029    -0.87000
O212        O  0.53880041  0.94924365  0.62453495    -0.87000
O213        O  0.52496353  0.08348320  0.62130038    -0.86700
O214        O  0.51395371  0.07591645  0.39342466    -0.86500
O215        O  0.63456714  0.02838371  0.43366748    -0.86900
O216        O  0.64235401  0.03971000  0.56272154    -0.86400
O217        O  0.58077769  0.02032126  0.39109976    -0.87400
O218        O  0.59716070  0.03710725  0.61511097    -0.86600
O219        O  0.53211563  0.89575279  0.44608663    -0.87000
O220        O  0.51076070  0.12550364  0.44131988    -0.86700
O221        O  0.51892996  0.12940727  0.57007689    -0.86400
O222        O  0.53682743  0.90095363  0.57562065    -0.86800
O223        O  0.64741143  0.95725661  0.50487162    -0.87100
O224        O  0.63170207  0.09175135  0.49883863    -0.88400
Zr225      Zr  0.53256860  0.93240331  0.51006127     2.83100
Zr226      Zr  0.51722949  0.09336616  0.50664402     2.83500
Zr227      Zr  0.52007943  0.01030829  0.42794547     2.84100
Zr228      Zr  0.53093662  0.01570483  0.59030246     2.83400
Zr229      Zr  0.60741353  0.02087584  0.50201561     2.84200
O230        O  0.56428600  0.05741553  0.54428462    -1.09000
O231        O  0.56794677  0.97471823  0.46553342    -1.08500
C232        C  0.63786222  0.91925185  0.50731750     1.06200
C233        C  0.61541768  0.12739098  0.49888610     1.08800
C234        C  0.52942938  0.90597591  0.40856730     1.06400
C235        C  0.53849058  0.91185604  0.61273285     1.06700
C236        C  0.52128235  0.12003921  0.60766791     1.06300
C237        C  0.51135435  0.11320898  0.40459140     1.05900
C238        C  0.61811871  0.02752203  0.39839678     1.06300
C239        C  0.63211703  0.04567198  0.59961816     1.05800
H240        H  0.57273702  0.07440205  0.44643484     0.32500
O241        O  0.55921746  0.05590503  0.46443779    -1.30100
H242        H  0.59238139  0.96337896  0.56369082     0.32500
O243        O  0.57301730  0.97773292  0.54741360    -1.31500
C244        C  0.25928586  0.95742208  0.76608087     0.02700
C245        C  0.29312891  0.95069066  0.74205934    -0.13400
C246        C  0.29058787  0.95288529  0.70069807     0.00200
C247        C  0.25292290  0.95494048  0.68216730    -0.12000
C248        C  0.21744884  0.96032150  0.70496648     0.02700
C249        C  0.22082790  0.96267236  0.74769882    -0.11400
H250        H  0.32288664  0.94981135  0.75583829     0.08300
H251        H  0.25179008  0.95611829  0.64956833     0.05800
H252        H  0.19478966  0.97022117  0.76593853     0.05700
C253        C  0.76361718  0.98009635  0.70474488     0.02700
C254        C  0.73223216  0.96123946  0.72717976    -0.13400
C255        C  0.70189199  0.98521260  0.74565098     0.00200
C256        C  0.70198434  0.02676619  0.73852142    -0.12000
C257        C  0.73063411  0.04497678  0.71291311     0.02700
C258        C  0.76450604  0.02207391  0.70203322    -0.11400
H259        H  0.73106502  0.92878764  0.72960527     0.08300
H260        H  0.67714716  0.04408623  0.75053732     0.05800
H261        H  0.78871876  0.03584935  0.68488946     0.05700
C262        C  0.28017018  0.99244395  0.22301739     0.02700
C263        C  0.23875635  0.99672942  0.23363913    -0.13400
C264        C  0.22749735  0.99619472  0.27499099     0.00200
C265        C  0.25755565  0.99188656  0.30418528    -0.12000
C266        C  0.29784431  0.98915542  0.29326964     0.02700
C267        C  0.30908478  0.98862473  0.25321067    -0.11400
H268        H  0.21611850  0.00076846  0.21051964     0.08300
H269        H  0.24972218  0.99235550  0.33592870     0.05800
H270        H  0.34093491  0.98661583  0.24548973     0.05700
O271        O  0.60576607  0.98765101  0.03364724    -0.86900
O272        O  0.37482027  0.98507365  0.05514534    -0.87100
O273        O  0.49241953  0.04863920  0.09387967    -0.88700
O274        O  0.48792337  0.91990823  0.09355897    -0.87500
O275        O  0.48002978  0.86927944  0.04725656    -0.87100
O276        O  0.48578725  0.09734380  0.04519812    -0.88400
O277        O  0.42765723  0.98683517  0.09983899    -0.86900
O278        O  0.56223484  0.98481145  0.08759434    -0.86500
Zr279      Zr  0.49182353  0.98405951  0.06114227     2.84300
O280        O  0.44722880  0.94325067  0.02486711    -1.08500
O281        O  0.52916058  0.02408351  0.01679049    -1.09200
C282        C  0.59827562  0.98731060  0.07193784     1.06200
C283        C  0.38945011  0.98669069  0.09084246     1.06200
C284        C  0.48835762  0.08529708  0.08198674     1.09100
C285        C  0.48283808  0.88295418  0.08352937     1.06900
H286        H  0.43154761  0.04152740  0.04281165     0.32500
O287        O  0.44712021  0.02468601  0.02500681    -1.29400
H288        H  0.54573555  0.92564979  0.03282046     0.32100
O289        O  0.52765203  0.94217582  0.01706738    -1.31100
O290        O  0.36210917  0.98300706  0.92822488    -0.86900
O291        O  0.59156558  0.97538952  0.90371196    -0.88400
O292        O  0.41769440  0.09743153  0.98344704    -0.87000
O293        O  0.41395140  0.87040313  0.98833040    -0.87000
O294        O  0.55101578  0.86800529  0.97795721    -0.86700
O295        O  0.55078183  0.09767464  0.97373722    -0.86500
O296        O  0.46850647  0.04974554  0.86697404    -0.86900
O297        O  0.46367253  0.92038171  0.86718539    -0.86400
O298        O  0.47193618  0.09638647  0.91775460    -0.87400
O299        O  0.46612191  0.87087102  0.91528753    -0.86600
O300        O  0.36898939  0.04871002  0.99070597    -0.87000
O301        O  0.59824020  0.04807700  0.96709016    -0.86700
O302        O  0.59875540  0.91808895  0.97397770    -0.86400
O303        O  0.36704854  0.92079256  0.99465466    -0.86800
O304        O  0.40531495  0.98331325  0.87394870    -0.87100
O305        O  0.53919121  0.97647413  0.85879958    -0.88400
Zr306      Zr  0.40306152  0.98417067  0.98842657     2.83100
Zr307      Zr  0.56474275  0.98273223  0.97217236     2.83500
Zr308      Zr  0.48435112  0.06433328  0.98045629     2.84100
Zr309      Zr  0.48262447  0.90090556  0.98076937     2.83400
Zr310      Zr  0.47590814  0.98388582  0.89893945     2.84200
O311        O  0.51966462  0.94194940  0.93589500    -1.09000
O312        O  0.43966898  0.02442045  0.94369192    -1.08500
C313        C  0.36956057  0.98230219  0.89022039     1.06200
C314        C  0.57741734  0.97323220  0.86749720     1.08800
C315        C  0.38054451  0.08558425  0.98757714     1.06400
C316        C  0.37702819  0.88337734  0.99294098     1.06700
C317        C  0.58841266  0.88068211  0.97606940     1.06300
C318        C  0.58782669  0.08544283  0.96939916     1.05900
C319        C  0.46779654  0.08596816  0.88092045     1.06300
C320        C  0.45856837  0.88399093  0.87924213     1.05800
H321        H  0.53645390  0.04101367  0.91637082     0.32500
O322        O  0.52123647  0.02439050  0.93496510    -1.30100
H323        H  0.41933783  0.92774536  0.93048243     0.32500
O324        O  0.43934873  0.94357742  0.94452286    -1.31500
C325        C  0.50509762  0.27295010  0.21841835     0.02700
C326        C  0.50867948  0.26269230  0.25992886    -0.13400
C327        C  0.49738060  0.22344829  0.27310034     0.00200
C328        C  0.48289272  0.19584397  0.24508748    -0.12000
C329        C  0.48267877  0.20501821  0.20431370     0.02700
C330        C  0.49192261  0.24370065  0.19133224    -0.11400
H331        H  0.52091705  0.28416693  0.28108261     0.08300
H332        H  0.47576121  0.16537612  0.25460726     0.05800
H333        H  0.49147385  0.25039197  0.15935042     0.05700
C334        C  0.50882391  0.72745837  0.23738969     0.02700
C335        C  0.52323932  0.74627934  0.27315354    -0.13400
C336        C  0.50568003  0.78332310  0.28608961     0.00200
C337        C  0.47626380  0.80137683  0.26172977    -0.12000
C338        C  0.46675069  0.78524702  0.22410149     0.02700
C339        C  0.47824122  0.74612562  0.21534780    -0.11400
H340        H  0.54829221  0.73332344  0.28955244     0.08300
H341        H  0.46635757  0.83170937  0.26856724     0.05800
H342        H  0.47004457  0.73358822  0.18634810     0.05700
C343        C  0.50578000  0.78795283  0.72951349     0.02700
C344        C  0.46472310  0.79604467  0.73552308    -0.13400
C345        C  0.44225114  0.77510688  0.76482345     0.00200
C346        C  0.45767397  0.73794597  0.77737358    -0.12000
C347        C  0.49907062  0.72994436  0.77448007     0.02700
C348        C  0.52379410  0.75552035  0.75061750    -0.11400
H349        H  0.45233312  0.82239501  0.72092931     0.08300
H350        H  0.43937470  0.71791348  0.79534602     0.05800
H351        H  0.55608068  0.75055323  0.74883825     0.05700
C352        C  0.49343121  0.23925387  0.72912979     0.02700
C353        C  0.51053577  0.27387095  0.74733728    -0.13400
C354        C  0.49505754  0.28754164  0.78481120     0.00200
C355        C  0.46485009  0.26499763  0.80413838    -0.12000
C356        C  0.45213121  0.22835140  0.78810963     0.02700
C357        C  0.46192249  0.21902268  0.74856629    -0.11400
H358        H  0.53623594  0.28874932  0.73360404     0.08300
H359        H  0.45674673  0.27209743  0.83498279     0.05800
H360        H  0.45183218  0.19042359  0.73644116     0.05700
O361        O  0.98731773  0.36331615  0.05031120    -0.86900
O362        O  0.97435669  0.59419813  0.05028661    -0.87100
O363        O  0.04319624  0.47557724  0.10507583    -0.88700
O364        O  0.91288858  0.46725998  0.09411238    -0.87500
O365        O  0.86683908  0.46122948  0.04283040    -0.87100
O366        O  0.09511179  0.47724891  0.05915450    -0.88400
O367        O  0.97522215  0.54602186  0.10004676    -0.86900
O368        O  0.97908946  0.41073884  0.09986124    -0.86500
Zr369      Zr  0.97988782  0.47818349  0.06783589     2.84300
O370        O  0.93924618  0.51617195  0.02410845    -1.08500
O371        O  0.02553303  0.43948666  0.03037005    -1.09200
C372        C  0.98259200  0.37392737  0.08725521     1.06200
C373        C  0.97362549  0.58323895  0.08759170     1.06200
C374        C  0.08099456  0.47484675  0.09526839     1.09100
C375        C  0.87741555  0.45952519  0.08016238     1.06900
H376        H  0.03612658  0.53845489  0.04819539     0.32500
O377        O  0.02127942  0.52112967  0.03021559    -1.29400
H378        H  0.92848707  0.41692703  0.03842813     0.32100
O379        O  0.94471516  0.43599150  0.02344046    -1.31100
O380        O  0.98326843  0.59335955  0.92134869    -0.86900
O381        O  0.99265685  0.36268649  0.92218881    -0.88400
O382        O  0.09651336  0.55064927  0.99522790    -0.87000
O383        O  0.86602606  0.53917661  0.98221990    -0.87000
O384        O  0.87518986  0.40410455  0.97783722    -0.86700
O385        O  0.10209816  0.41722805  0.99189600    -0.86500
O386        O  0.06127463  0.47494899  0.87815893    -0.86900
O387        O  0.93100145  0.46299678  0.86836000    -0.86400
O388        O  0.10473785  0.48081153  0.93165788    -0.87400
O389        O  0.87802341  0.45968578  0.91300002    -0.86600
O390        O  0.04476300  0.59662548  0.99338821    -0.87000
O391        O  0.05564415  0.36601774  0.98966636    -0.86700
O392        O  0.92799630  0.35967123  0.98256608    -0.86400
O393        O  0.91383025  0.58880016  0.98688773    -0.86800
O394        O  0.98991449  0.54682884  0.87076855    -0.87100
O395        O  0.99295902  0.41042568  0.87217710    -0.88400
Zr396      Zr  0.98111315  0.55905226  0.98622949     2.83100
Zr397      Zr  0.99008696  0.39784847  0.98608377     2.83500
Zr398      Zr  0.06645137  0.48251497  0.99249442     2.84100
Zr399      Zr  0.90330846  0.47363052  0.98030488     2.83400
Zr400      Zr  0.99224175  0.47886932  0.90401606     2.84200
O401        O  0.95088714  0.43712928  0.94324287    -1.09000
O402        O  0.02742627  0.52143667  0.94820249    -1.08500
C403        C  0.98603680  0.58367343  0.88381102     1.06200
C404        C  0.99248077  0.37319859  0.88484149     1.08800
C405        C  0.08266460  0.58720883  0.99573214     1.06400
C406        C  0.87669333  0.57684150  0.98549134     1.06700
C407        C  0.89010954  0.36793047  0.97983438     1.06300
C408        C  0.09208504  0.37947963  0.99075055     1.05900
C409        C  0.09681837  0.47538652  0.89425260     1.06300
C410        C  0.89389199  0.45575797  0.87765461     1.05800
H411        H  0.04981564  0.42340037  0.93308024     0.32500
O412        O  0.03149882  0.44020520  0.94821069    -1.30100
H413        H  0.92825502  0.53274519  0.92383669     0.32500
O414        O  0.94501730  0.51691098  0.94174905    -1.31500
C415        C  0.73368425  0.49776776  0.24041142     0.02700
C416        C  0.74558581  0.46142036  0.22329911    -0.13400
C417        C  0.78654731  0.45288241  0.22077748     0.00200
C418        C  0.81264331  0.47055628  0.24907516    -0.12000
C419        C  0.79875616  0.50076103  0.27519969     0.02700
C420        C  0.75967540  0.51695333  0.26826778    -0.11400
H421        H  0.72522966  0.44650346  0.20253904     0.08300
H422        H  0.84444033  0.46310903  0.24917261     0.05800
H423        H  0.75042888  0.54455691  0.28280271     0.05700
C424        C  0.27993882  0.50040494  0.21588205     0.02700
C425        C  0.27274322  0.50750555  0.25732844    -0.13400
C426        C  0.23475620  0.49739976  0.27430571     0.00200
C427        C  0.20540345  0.47918077  0.25029105    -0.12000
C428        C  0.21114758  0.47478001  0.20892438     0.02700
C429        C  0.24866227  0.48476729  0.19210656    -0.11400
H430        H  0.29560855  0.52191246  0.27556448     0.08300
H431        H  0.17614329  0.47202717  0.26332226     0.05800
H432        H  0.25305078  0.48220391  0.15987582     0.05700
C433        C  0.24319627  0.48988029  0.73214049     0.02700
C434        C  0.21973191  0.46445877  0.75607490    -0.13400
C435        C  0.23315526  0.45177651  0.79361794     0.00200
C436        C  0.27372566  0.45671227  0.80346198    -0.12000
C437        C  0.29808633  0.48341137  0.78151664     0.02700
C438        C  0.28261739  0.50073949  0.74538905    -0.11400
H439        H  0.18848424  0.45932564  0.74763835     0.08300
H440        H  0.28438788  0.44514868  0.83209255     0.05800
H441        H  0.30035460  0.52243405  0.72859664     0.05700
C442        C  0.77790321  0.47853194  0.71203928     0.02700
C443        C  0.75438165  0.50342484  0.73813547    -0.13400
C444        C  0.73681799  0.48639094  0.77350547     0.00200
C445        C  0.74517703  0.44619642  0.78283341    -0.12000
C446        C  0.77534775  0.42579394  0.76177152     0.02700
C447        C  0.78180842  0.43751899  0.72197438    -0.11400
H448        H  0.75071565  0.53513018  0.73177429     0.08300
H449        H  0.73477685  0.43453291  0.81149068     0.05800
H450        H  0.80214382  0.41899268  0.70430980     0.05700
C451        C  0.22935522  0.27606241  0.00671550     0.02700
C452        C  0.26008076  0.30223181  0.01901950    -0.13400
C453        C  0.29927364  0.28835404  0.02461775     0.00200
C454        C  0.30749432  0.24744728  0.02173605    -0.12000
C455        C  0.27771279  0.22053738  0.00908765     0.02700
C456        C  0.23813334  0.23471929  0.00149069    -0.11400
H457        H  0.25416494  0.33426498  0.02100832     0.08300
H458        H  0.33832986  0.23703399  0.02564651     0.05800
H459        H  0.21523530  0.21444283  0.99015639     0.05700
O460        O  0.52075818  0.44447832  0.12167387    -0.86900
O461        O  0.52719691  0.44648715  0.89271305    -0.87100
O462        O  0.45941271  0.39682738  0.01124925    -0.88700
O463        O  0.59074368  0.40081515  0.01050719    -0.87500
O464        O  0.63965967  0.45003258  0.01392140    -0.87100
O465        O  0.40902855  0.44446789  0.01220017    -0.88400
O466        O  0.52698144  0.39724404  0.94090616    -0.86900
O467        O  0.52630884  0.39590451  0.07304104    -0.86500
Zr468      Zr  0.52453934  0.43030951  0.00714834     2.84300
O469        O  0.56560997  0.47212373  0.96742946    -1.08500
O470        O  0.48101311  0.46915502  0.04642372    -1.09200
C471        C  0.52393480  0.40741634  0.11025634     1.06200
C472        C  0.52759327  0.40920351  0.90374348     1.06200
C473        C  0.42219138  0.40812914  0.01389801     1.09100
C474        C  0.62741941  0.41318443  0.01401267     1.06900
H475        H  0.46636350  0.45137109  0.94868016     0.32500
O476        O  0.48243843  0.46879125  0.96556132    -1.29400
H477        H  0.58025594  0.45602306  0.06610459     0.32100
O478        O  0.56357761  0.47202643  0.04833991    -1.31100
O479        O  0.52139736  0.57671812  0.89322802    -0.86900
O480        O  0.52272361  0.57380200  0.12299604    -0.88400
O481        O  0.40872100  0.50815387  0.93709223    -0.87000
O482        O  0.63894785  0.51414096  0.94131705    -0.87000
O483        O  0.63490741  0.52008192  0.07776015    -0.86700
O484        O  0.40535095  0.51160020  0.07064060    -0.86500
O485        O  0.45243062  0.62326462  0.01530860    -0.86900
O486        O  0.58308454  0.62630909  0.99594376    -0.86400
O487        O  0.40606494  0.57233751  0.00713168    -0.87400
O488        O  0.63447060  0.57994004  0.99567656    -0.86600
O489        O  0.45970673  0.50768399  0.89009763    -0.87000
O490        O  0.45336435  0.51022756  0.12039269    -0.86700
O491        O  0.58273447  0.51425958  0.12282976    -0.86400
O492        O  0.58861416  0.51476092  0.89430668    -0.86800
O493        O  0.51708786  0.62616931  0.94101895    -0.87100
O494        O  0.52694998  0.62439773  0.07626695    -0.88400
Zr495      Zr  0.52302727  0.51120908  0.92668975     2.83100
Zr496      Zr  0.51970423  0.51025277  0.08775398     2.83500
Zr497      Zr  0.44039663  0.50930337  0.00502601     2.84100
Zr498      Zr  0.60487595  0.51428361  0.00884726     2.83400
Zr499      Zr  0.51942244  0.59319262  0.00831228     2.84200
O500        O  0.56120596  0.55317892  0.04903576    -1.09000
O501        O  0.48048493  0.55200959  0.96574944    -1.08500
C502        C  0.51916086  0.61406740  0.90381744     1.06200
C503        C  0.52656045  0.61115409  0.11323717     1.08800
C504        C  0.42208247  0.50704158  0.90023304     1.06400
C505        C  0.62621854  0.51528223  0.90416821     1.06700
C506        C  0.62039208  0.51801693  0.11429123     1.06300
C507        C  0.41633122  0.51126634  0.10810814     1.05900
C508        C  0.41609869  0.60899978  0.01391701     1.06300
C509        C  0.61928726  0.61478691  0.98745803     1.05800
H510        H  0.46201296  0.56643741  0.06483732     0.32500
O511        O  0.47899393  0.55053403  0.04731535    -1.30100
H512        H  0.57593549  0.56810759  0.94953510     0.32500
O513        O  0.56074691  0.55194103  0.96856954    -1.31500
C514        C  0.71858779  0.76534478  0.95241253     0.02700
C515        C  0.74318483  0.73959055  0.97677804    -0.13400
C516        C  0.76358751  0.70648473  0.95830475     0.00200
C517        C  0.75580706  0.69885192  0.91756057    -0.12000
C518        C  0.72094092  0.71526112  0.90044249     0.02700
C519        C  0.71397552  0.75532415  0.91144573    -0.11400
H520        H  0.74607719  0.74493969  0.00875045     0.08300
H521        H  0.77008130  0.67318559  0.90357340     0.05800
H522        H  0.69297039  0.77266951  0.89339816     0.05700
C523        C  0.25784309  0.76088092  0.02335360     0.02700
C524        C  0.21957371  0.74492954  0.01163291    -0.13400
C525        C  0.20768445  0.70581740  0.02522575     0.00200
C526        C  0.23543601  0.68286376  0.04730786    -0.12000
C527        C  0.27458268  0.69706705  0.05369772     0.02700
C528        C  0.28318777  0.73739703  0.04723218    -0.11400
H529        H  0.20036551  0.76169753  0.99132045     0.08300
H530        H  0.22902429  0.65136903  0.05315525     0.05800
H531        H  0.31364324  0.74807811  0.05316012     0.05700
C532        C  0.70699986  0.20920021  0.99846533     0.02700
C533        C  0.74671956  0.21751325  0.98417953    -0.13400
C534        C  0.76953651  0.24887722  0.00215286     0.00200
C535        C  0.75246764  0.27106777  0.03351926    -0.12000
C536        C  0.71143087  0.26805484  0.04133704     0.02700
C537        C  0.69062907  0.23386062  0.02863661    -0.11400
H538        H  0.75883840  0.20120119  0.95871470     0.08300
H539        H  0.76825264  0.29770530  0.04404191     0.05800
H540        H  0.65903924  0.23078472  0.03686426     0.05700
C541        C  0.66987942  0.37252691  0.05878943    -0.26700
C542        C  0.65670068  0.38138909  0.01964098    -0.14800
C543        C  0.66263787  0.35392133  0.98833085     0.35800
C544        C  0.67902333  0.31651780  0.99720298    -0.26200
C545        C  0.69019837  0.30635094  0.03669027    -0.15400
C546        C  0.68716515  0.33515165  0.06751808     0.36900
N547        N  0.70049062  0.32685342  0.10764002    -0.89700
H548        H  0.66487401  0.39388904  0.08287607     0.18000
H549        H  0.68391741  0.29528719  0.97299734     0.18000
N550        N  0.65098199  0.36394466  0.94788784    -0.88700
H551        H  0.68512406  0.30137650  0.11807843     0.35400
H552        H  0.73135242  0.32023663  0.10670302     0.40500
H553        H  0.65722515  0.34009927  0.92837358     0.40100
H554        H  0.66899868  0.38806761  0.93848080     0.35000
C555        C  0.34860783  0.63291556  0.99836123    -0.26700
C556        C  0.38219533  0.63497932  0.02351547    -0.14800
C557        C  0.37945513  0.65425577  0.06116811     0.35800
C558        C  0.34263307  0.67191094  0.07259213    -0.26200
C559        C  0.30890284  0.66989310  0.04714046    -0.15400
C560        C  0.31226248  0.65041009  0.00955180     0.36900
N561        N  0.27940933  0.65013863  0.98158039    -0.89700
H562        H  0.35057831  0.61732037  0.96978097     0.18000
H563        H  0.34042279  0.68818300  0.10072707     0.18000
N564        N  0.41371808  0.65524562  0.08769371    -0.88700
H565        H  0.28890876  0.66440407  0.95510960     0.35400
H566        H  0.27249785  0.62022358  0.97479144     0.40500
H567        H  0.41982635  0.62569159  0.09661789     0.40100
H568        H  0.40674778  0.67115488  0.11390971     0.35000
C569        C  0.66951103  0.62280469  0.93264695    -0.26700
C570        C  0.64221472  0.64086689  0.95967439    -0.14800
C571        C  0.63072763  0.68116475  0.95299016     0.35800
C572        C  0.64970017  0.70310213  0.92237102    -0.26200
C573        C  0.68464381  0.68792260  0.90318859    -0.15400
C574        C  0.68993696  0.64578153  0.90370883     0.36900
N575        N  0.71732957  0.62666722  0.87632177    -0.89700
H576        H  0.67534253  0.59078476  0.93396575     0.18000
H577        H  0.64099047  0.73420388  0.91846018     0.18000
N578        N  0.60071735  0.70006255  0.97797945    -0.88700
H579        H  0.73831900  0.61018075  0.89309561     0.35400
H580        H  0.70075570  0.60615987  0.85918228     0.40500
H581        H  0.59619161  0.72994224  0.96941341     0.40100
H582        H  0.61176623  0.70053312  0.00742053     0.35000
C583        C  0.33374600  0.34828388  0.05274935    -0.26700
C584        C  0.33262316  0.31732553  0.02423734    -0.14800
C585        C  0.36087568  0.31667648  0.99239730     0.35800
C586        C  0.39102699  0.34583257  0.99058111    -0.26200
C587        C  0.39196874  0.37682168  0.01876858    -0.15400
C588        C  0.36308355  0.37847766  0.04992011     0.36900
N589        N  0.36361063  0.41064788  0.07855486    -0.89700
H590        H  0.31137506  0.34940532  0.07661425     0.18000
H591        H  0.41262144  0.34535704  0.96597104     0.18000
N592        N  0.35753029  0.28781828  0.96060396    -0.88700
H593        H  0.36659645  0.39816287  0.10730376     0.35400
H594        H  0.33573623  0.42539007  0.07727487     0.40500
H595        H  0.38468902  0.27185315  0.95890274     0.40100
H596        H  0.35371782  0.30343616  0.93352399     0.35000
C597        C  0.67065990  0.51219915  0.79669616    -0.26700
C598        C  0.71201155  0.50850973  0.80393790    -0.14800
C599        C  0.72584775  0.51311575  0.84414873     0.35800
C600        C  0.69798601  0.51694822  0.87618208    -0.26200
C601        C  0.65597544  0.51661025  0.86936609    -0.15400
C602        C  0.64271537  0.51617691  0.82847226     0.36900
N603        N  0.60061762  0.51782463  0.81858852    -0.89700
H604        H  0.65947712  0.50847892  0.76629363     0.18000
H605        H  0.70938349  0.51873605  0.90665858     0.18000
N606        N  0.76815126  0.51285751  0.85336139    -0.88700
H607        H  0.59314512  0.49176022  0.80269539     0.35400
H608        H  0.59592088  0.54256937  0.79969051     0.40500
H609        H  0.78210273  0.53556084  0.83648468     0.40100
H610        H  0.78058592  0.48534529  0.84478598     0.35000
C611        C  0.36587050  0.46653824  0.80871251    -0.26700
C612        C  0.33601811  0.49590895  0.80235928    -0.14800
C613        C  0.33627828  0.53046112  0.82703183     0.35800
C614        C  0.36434381  0.53383794  0.85886407    -0.26200
C615        C  0.39268784  0.50334446  0.86644486    -0.15400
C616        C  0.39417032  0.46993242  0.84023998     0.36900
N617        N  0.42337555  0.43863898  0.84681509    -0.89700
H618        H  0.36519884  0.43938276  0.79075427     0.18000
H619        H  0.36361365  0.56014306  0.87803763     0.18000
N620        N  0.30688994  0.56143738  0.82092563    -0.88700
H621        H  0.42047196  0.41612401  0.82509954     0.35400
H622        H  0.41693774  0.42521969  0.87459907     0.40500
H623        H  0.29115946  0.56556377  0.84790004     0.40100
H624        H  0.32240207  0.58814856  0.81467892     0.35000
C625        C  0.35106067  0.53840694  0.13495998    -0.26700
C626        C  0.38398209  0.51219519  0.13949489    -0.14800
C627        C  0.38530657  0.48680364  0.17372915     0.35800
C628        C  0.35258845  0.48619987  0.20111180    -0.26200
C629        C  0.31858228  0.51055957  0.19503817    -0.15400
C630        C  0.31870857  0.53822895  0.16267015     0.36900
N631        N  0.28504590  0.56500201  0.15735915    -0.89700
H632        H  0.35036908  0.55876403  0.10943655     0.18000
H633        H  0.35235662  0.46464447  0.22563151     0.18000
N634        N  0.41868542  0.45984503  0.17916433    -0.88700
H635        H  0.28957392  0.58345649  0.13221240     0.35400
H636        H  0.28406783  0.58396718  0.18239299     0.40500
H637        H  0.41761727  0.43920312  0.15551427     0.40100
H638        H  0.41527830  0.44333326  0.20578096     0.35000
C639        C  0.68580696  0.53820041  0.14785377    -0.26700
C640        C  0.64780133  0.51950875  0.15019879    -0.14800
C641        C  0.63563588  0.50280732  0.18789170     0.35800
C642        C  0.66232804  0.50254536  0.22068743    -0.26200
C643        C  0.70140895  0.51822211  0.21723444    -0.15400
C644        C  0.71231418  0.53810261  0.18091707     0.36900
N645        N  0.75139149  0.55614544  0.17602261    -0.89700
H646        H  0.69544241  0.55215116  0.11992689     0.18000
H647        H  0.65391088  0.48617818  0.24770967     0.18000
N648        N  0.59703106  0.48370442  0.19262933    -0.88700
H649        H  0.77366868  0.53425575  0.17986594     0.35400
H650        H  0.75496382  0.57768936  0.19859224     0.40500
H651        H  0.58155261  0.49810780  0.21597128     0.40100
H652        H  0.60171205  0.45374616  0.20105594     0.35000
C653        C  0.85817317  0.65066283  0.98893562    -0.26700
C654        C  0.84516519  0.61004198  0.98707944    -0.14800
C655        C  0.80296699  0.60308716  0.98545279     0.35800
C656        C  0.77590496  0.63586338  0.98158836    -0.26200
C657        C  0.78964552  0.67603161  0.97926382    -0.15400
C658        C  0.83122269  0.68316929  0.98478603     0.36900
N659        N  0.84725842  0.72318233  0.98394997    -0.89700
H660        H  0.89003192  0.65762625  0.99161487     0.18000
H661        H  0.74405337  0.62966233  0.97741605     0.18000
N662        N  0.78727065  0.56295025  0.98636832    -0.88700
H663        H  0.83286119  0.73978007  0.00649133     0.35400
H664        H  0.84038024  0.73625385  0.95615546     0.40500
H665        H  0.77056964  0.55837098  0.96009472     0.40100
H666        H  0.76747042  0.56061592  0.01084802     0.35000
C667        C  0.82941706  0.33042797  0.95376030    -0.26700
C668        C  0.86232105  0.33252252  0.98023896    -0.14800
C669        C  0.86880699  0.30008659  0.00712979     0.35800
C670        C  0.84118561  0.26793328  0.00882124    -0.26200
C671        C  0.80645547  0.26750130  0.98466198    -0.15400
C672        C  0.80174099  0.29818420  0.95557955     0.36900
N673        N  0.76694010  0.29833147  0.93005006    -0.89700
H674        H  0.82432174  0.35448186  0.93249521     0.18000
H675        H  0.84453458  0.24546213  0.03227239     0.18000
N676        N  0.90171943  0.30114511  0.03507052    -0.88700
H677        H  0.77699813  0.29825270  0.90021180     0.35400
H678        H  0.75113151  0.32511195  0.93490718     0.40500
H679        H  0.91917510  0.27530271  0.03080196     0.40100
H680        H  0.88978999  0.30015998  0.06423578     0.35000
C681        C  0.10591860  0.65157087  0.02844180    -0.26700
C682        C  0.11238898  0.62105573  0.99979237    -0.14800
C683        C  0.14774116  0.62284044  0.97612665     0.35800
C684        C  0.17558181  0.65454923  0.98129170    -0.26200
C685        C  0.17061705  0.68370496  0.01160574    -0.15400
C686        C  0.13498048  0.68198259  0.03549097     0.36900
N687        N  0.12835113  0.70894227  0.06862433    -0.89700
H688        H  0.07909058  0.65044927  0.04720981     0.18000
H689        H  0.20281275  0.65471374  0.96321661     0.18000
N690        N  0.15599414  0.59195404  0.94728807    -0.88700
H691        H  0.10196009  0.72512298  0.06261906     0.35400
H692        H  0.15152021  0.73013917  0.07087316     0.40500
H693        H  0.18355594  0.57857557  0.95483772     0.40100
H694        H  0.15929159  0.60548190  0.91903219     0.35000
C695        C  0.19082263  0.32667678  0.96773979    -0.26700
C696        C  0.19025870  0.29487549  0.99578237    -0.14800
C697        C  0.15504323  0.28804759  0.01856957     0.35800
C698        C  0.12228181  0.31485917  0.01517996    -0.26200
C699        C  0.12476890  0.34908598  0.99024907    -0.15400
C700        C  0.15850286  0.35373729  0.96487239     0.53700
N701        N  0.15994484  0.38586197  0.93607565    -0.89700
H702        H  0.21760147  0.33188401  0.94957685     0.18000
H703        H  0.09565963  0.30997174  0.03347011     0.18000
N704        N  0.15334390  0.25538055  0.04668967    -0.88700
H705        H  0.16321191  0.37327842  0.90744509     0.35400
H706        H  0.18558368  0.40328573  0.94189082     0.40500
H707        H  0.12871585  0.23722584  0.03909389     0.40100
H708        H  0.14794322  0.26727167  0.07530116     0.35000
C709        C  0.83652265  0.41343487  0.85457124    -0.26700
C710        C  0.86785258  0.44051793  0.84529196    -0.14800
C711        C  0.87495749  0.45100513  0.80488458     0.35800
C712        C  0.84782092  0.43857495  0.77557815    -0.26200
C713        C  0.81225437  0.41735291  0.78592459    -0.15400
C714        C  0.80914473  0.40108178  0.82495528     0.36900
N715        N  0.77718531  0.37368295  0.83488212    -0.89700
H716        H  0.83251641  0.40293472  0.88510206     0.18000
H717        H  0.85278773  0.44989626  0.74543431     0.18000
N718        N  0.90826121  0.47630582  0.79361398    -0.88700
H719        H  0.76091728  0.38552277  0.85913429     0.35400
H720        H  0.79039740  0.34679526  0.84448912     0.40500
H721        H  0.89685428  0.50243366  0.78031916     0.40100
H722        H  0.92548849  0.46113735  0.77203976     0.35000
C723        C  0.16879914  0.48419160  0.87972292    -0.26700
C724        C  0.13194599  0.46663720  0.86916982    -0.14800
C725        C  0.13077519  0.43706912  0.83900643     0.35800
C726        C  0.16602509  0.42818778  0.81745489    -0.26200
C727        C  0.20231352  0.44862841  0.82559738    -0.15400
C728        C  0.20389952  0.47540884  0.85858269     0.36900
N729        N  0.24034649  0.49597601  0.86935615    -0.89700
H730        H  0.17032069  0.50578533  0.90408647     0.18000
H731        H  0.16450262  0.40711905  0.79266742     0.18000
N732        N  0.09413539  0.41571398  0.83060891    -0.88700
H733        H  0.23484254  0.52688881  0.86785648     0.35400
H734        H  0.24719114  0.48867507  0.89919561     0.40500
H735        H  0.09946953  0.38504496  0.83514418     0.40100
H736        H  0.08701063  0.42009221  0.80027824     0.35000
C737        C  0.14138344  0.49265708  0.18977624    -0.26700
C738        C  0.17555952  0.46846617  0.18268738    -0.14800
C739        C  0.17618306  0.44304001  0.14857391     0.35800
C740        C  0.14433977  0.44510066  0.12104231    -0.26200
C741        C  0.11110650  0.47058709  0.12748187    -0.15400
C742        C  0.10882535  0.49341892  0.16300461     0.36900
N743        N  0.07480581  0.51920401  0.17060553    -0.89700
H744        H  0.14074047  0.51255088  0.21554369     0.18000
H745        H  0.14555043  0.42655204  0.09426878     0.18000
N746        N  0.20784841  0.41437332  0.14124187    -0.88700
H747        H  0.07936892  0.53610209  0.19670157     0.35400
H748        H  0.04987089  0.50078327  0.17655022     0.40500
H749        H  0.22762440  0.41214605  0.16555069     0.40100
H750        H  0.22435596  0.42419744  0.11619812     0.35000
C751        C  0.86258495  0.42392151  0.14321136    -0.26700
C752        C  0.84795637  0.44622093  0.11034842    -0.14800
C753        C  0.80745749  0.45893938  0.11027029     0.35800
C754        C  0.78514890  0.45558106  0.14570806    -0.26200
C755        C  0.80265621  0.43973286  0.18122740    -0.15400
C756        C  0.83992791  0.42008615  0.17842011     0.36900
N757        N  0.85536592  0.39760813  0.21174450    -0.89700
H758        H  0.89308060  0.41230518  0.14281860     0.18000
H759        H  0.75562388  0.46949280  0.14608476     0.18000
N760        N  0.78930151  0.47828796  0.07623343    -0.88700
H761        H  0.85804093  0.36781478  0.20238152     0.35400
H762        H  0.88422847  0.40841864  0.21861536     0.40500
H763        H  0.78986516  0.45832881  0.05198528     0.40100
H764        H  0.80615260  0.50387823  0.06881204     0.35000
C765        C  0.53305895  0.31006504  0.84477614    -0.26700
C766        C  0.51342419  0.32068847  0.80875859    -0.14800
C767        C  0.50285497  0.36143552  0.80257111     0.35800
C768        C  0.51065713  0.38974019  0.83297833    -0.26200
C769        C  0.52651402  0.37842748  0.87074886    -0.15400
C770        C  0.53872804  0.33784872  0.87596959     0.36900
N771        N  0.55598963  0.32337885  0.91272293    -0.89700
H772        H  0.54091829  0.27885881  0.85012722     0.18000
H773        H  0.50166301  0.42060982  0.82770482     0.18000
N774        N  0.48161898  0.37480001  0.76729171    -0.88700
H775        H  0.53433159  0.32506377  0.93558057     0.35400
H776        H  0.58060783  0.34155857  0.92000344     0.40500
H777        H  0.47707573  0.35138342  0.74696498     0.40100
H778        H  0.49996603  0.39586492  0.75260871     0.35000
C779        C  0.52228564  0.71327601  0.84327453    -0.26700
C780        C  0.51470322  0.69996310  0.80396034    -0.14800
C781        C  0.51001818  0.65840172  0.79729506     0.35800
C782        C  0.51269115  0.63123481  0.82998824    -0.26200
C783        C  0.51881699  0.64452955  0.86993845    -0.15400
C784        C  0.52423967  0.68630285  0.87602986     0.36900
N785        N  0.53129830  0.70199762  0.91535993    -0.89700
H786        H  0.52433890  0.74530232  0.84903074     0.18000
H787        H  0.50842962  0.59948520  0.82418185     0.18000
N788        N  0.50147299  0.64400848  0.75744786    -0.88700
H789        H  0.50762560  0.72160709  0.92235810     0.35400
H790        H  0.55769405  0.71914146  0.91365092     0.40500
H791        H  0.47299190  0.65474837  0.74915747     0.40100
H792        H  0.49945789  0.61262668  0.75733179     0.35000
C793        C  0.54979584  0.70293569  0.18023993    -0.26700
C794        C  0.52833273  0.69316958  0.21574905    -0.14800
C795        C  0.51167604  0.65414791  0.21895864     0.35800
C796        C  0.51240046  0.62830495  0.18545027    -0.26200
C797        C  0.52972111  0.63981793  0.14820395    -0.15400
C798        C  0.55038306  0.67716398  0.14662227     0.36900
N799        N  0.57171863  0.69019985  0.11136180    -0.89700
H800        H  0.56250065  0.73284513  0.17700691     0.18000
H801        H  0.49756374  0.59936664  0.18831981     0.18000
N802        N  0.49149340  0.64073118  0.25492357    -0.88700
H803        H  0.55115119  0.69364791  0.08781342     0.35400
H804        H  0.59285531  0.66815706  0.10362160     0.40500
H805        H  0.49405074  0.66213779  0.27773265     0.40100
H806        H  0.50682049  0.61524762  0.26527294     0.35000
C807        C  0.54828332  0.31284065  0.17163543    -0.26700
C808        C  0.51651783  0.31237637  0.20000800    -0.14800
C809        C  0.48924441  0.34492970  0.20051339     0.35800
C810        C  0.49412059  0.37681048  0.17270332    -0.26200
C811        C  0.52387424  0.37576077  0.14242398    -0.15400
C812        C  0.55185323  0.34370705  0.14252875     0.36900
N813        N  0.58321309  0.34212218  0.11257142    -0.89700
H814        H  0.56859506  0.28731329  0.17031040     0.18000
H815        H  0.47291377  0.40136684  0.17297134     0.18000
N816        N  0.45520738  0.34428958  0.22750347    -0.88700
H817        H  0.60104614  0.31646524  0.11648657     0.35400
H818        H  0.60211535  0.36686767  0.11722234     0.40500
H819        H  0.43663838  0.32024321  0.21922184     0.40100
H820        H  0.43784271  0.37031000  0.22398194     0.35000
C821        C  0.61124212  0.15725779  0.96280604    -0.26700
C822        C  0.62105761  0.11647110  0.96851121    -0.14800
C823        C  0.66222746  0.10652674  0.97612023     0.35800
C824        C  0.69076120  0.13737678  0.98297428    -0.26200
C825        C  0.67986771  0.17795004  0.98069470    -0.15400
C826        C  0.64028079  0.18787635  0.96791481     0.36900
N827        N  0.62940877  0.22926932  0.96149574    -0.89700
H828        H  0.58050749  0.16550354  0.95528882     0.18000
H829        H  0.72122214  0.12968977  0.99206884     0.18000
N830        N  0.67488488  0.06525710  0.97862083    -0.88700
H831        H  0.59920701  0.23167165  0.95262237     0.35400
H832        H  0.64685647  0.23998310  0.93747178     0.40500
H833        H  0.70528502  0.06328567  0.98690959     0.40100
H834        H  0.67300871  0.05320613  0.94965055     0.35000
C835        C  0.30900000  0.86224686  0.02072885    -0.26700
C836        C  0.34282355  0.85368112  0.99615523    -0.14800
C837        C  0.34262748  0.81750913  0.97404466     0.35800
C838        C  0.31039829  0.78995505  0.97870304    -0.26200
C839        C  0.27826349  0.79704065  0.00571711    -0.15400
C840        C  0.27733729  0.83408840  0.02608178     0.36900
N841        N  0.24540220  0.84220047  0.05404350    -0.89700
H842        H  0.30802845  0.89013801  0.03750503     0.18000
H843        H  0.31205026  0.76106890  0.96373038     0.18000
N844        N  0.37545291  0.80857743  0.94725967    -0.88700
H845        H  0.23107755  0.86872291  0.04498638     0.35400
H846        H  0.25828730  0.84721819  0.08228910     0.40500
H847        H  0.37431368  0.82969466  0.92392951     0.40100
H848        H  0.37147975  0.78031716  0.93418651     0.35000
C849        C  0.65943441  0.86289981  0.95604302    -0.26700
C850        C  0.62324024  0.85124391  0.97534849    -0.14800
C851        C  0.62241410  0.81309484  0.99437393     0.35800
C852        C  0.65635273  0.78693045  0.99097621    -0.26200
C853        C  0.69076545  0.79750377  0.96813182    -0.15400
C854        C  0.69225156  0.83639383  0.95140124     0.36900
N855        N  0.72673024  0.84858397  0.92821356    -0.89700
H856        H  0.66193095  0.89260396  0.94313580     0.18000
H857        H  0.65518894  0.75730913  0.00438847     0.18000
N858        N  0.58734292  0.80102951  0.01698771    -0.88700
H859        H  0.73864590  0.87461488  0.94120004     0.35400
H860        H  0.71693659  0.85582398  0.89920136     0.40500
H861        H  0.58427989  0.82091067  0.04113318     0.40100
H862        H  0.59166250  0.77253753  0.02960695     0.35000
C863        C  0.32312774  0.11803609  0.02360738    -0.26700
C864        C  0.34849106  0.11650384  0.98967518    -0.14800
C865        C  0.34303176  0.14462682  0.95851330     0.35800
C866        C  0.31489829  0.17587795  0.96326442    -0.26200
C867        C  0.29206221  0.17967546  0.99883553    -0.15400
C868        C  0.29512438  0.14940571  0.02871210     0.36900
N869        N  0.27221381  0.15089837  0.06550999    -0.89700
H870        H  0.32650613  0.09581923  0.04728885     0.18000
H871        H  0.31318943  0.19914124  0.94040349     0.18000
N872        N  0.36639742  0.14180088  0.92226968    -0.88700
H873        H  0.25437065  0.12495155  0.06675241     0.35400
H874        H  0.25211109  0.17508494  0.06548342     0.40500
H875        H  0.38251326  0.16863368  0.91860450     0.40100
H876        H  0.34639800  0.13912044  0.89810875     0.35000
C877        C  0.42725526  0.12720933  0.83391031    -0.26700
C878        C  0.46394193  0.11976497  0.85364660    -0.14800
C879        C  0.49471394  0.14902345  0.85362679     0.35800
C880        C  0.48796074  0.18560440  0.83517855    -0.26200
C881        C  0.45153546  0.19355798  0.81521372    -0.15400
C882        C  0.42119381  0.16392612  0.81381841     0.36900
N883        N  0.38477305  0.17096588  0.79175748    -0.89700
H884        H  0.40329857  0.10495560  0.83467342     0.18000
H885        H  0.51249375  0.20725220  0.83444395     0.18000
N886        N  0.53360599  0.14193884  0.87131188    -0.88700
H887        H  0.38227712  0.14859445  0.76984708     0.35400
H888        H  0.36039852  0.16784141  0.81161740     0.40500
H889        H  0.54562362  0.11557309  0.85907933     0.40100
H890        H  0.53041627  0.13823213  0.90234615     0.35000
C891        C  0.43182364  0.81632234  0.86199759    -0.26700
C892        C  0.44004903  0.85594374  0.85002084    -0.14800
C893        C  0.42607347  0.86865611  0.81161003     0.35800
C894        C  0.41110206  0.84000158  0.78461156    -0.26200
C895        C  0.41584895  0.79882216  0.79313739    -0.15400
C896        C  0.41671082  0.78851916  0.83443291     0.36900
N897        N  0.40380895  0.74975303  0.84820930    -0.89700
H898        H  0.43752114  0.80650802  0.89253881     0.18000
H899        H  0.40293669  0.84979387  0.75461228     0.18000
N900        N  0.42829404  0.90989281  0.79903426    -0.88700
H901        H  0.37968183  0.75388532  0.86810791     0.35400
H902        H  0.42754319  0.73660504  0.86428854     0.40500
H903        H  0.39913939  0.91948514  0.79165167     0.40100
H904        H  0.44609055  0.91147723  0.77301433     0.35000
C905        C  0.44739734  0.82792892  0.12010832    -0.26700
C906        C  0.47971418  0.85522155  0.11755458    -0.14800
C907        C  0.50566149  0.86068158  0.15058287     0.35800
C908        C  0.49813257  0.83977745  0.18602881    -0.26200
C909        C  0.46571844  0.81270004  0.18927413    -0.15400
C910        C  0.44019248  0.80633033  0.15590753     0.36900
N911        N  0.40761626  0.77780744  0.15850396    -0.89700
H912        H  0.42723224  0.82440237  0.09470614     0.18000
H913        H  0.51919037  0.84316432  0.21070443     0.18000
N914        N  0.53979896  0.88746738  0.14780893    -0.88700
H915        H  0.39190441  0.77654184  0.13126837     0.35400
H916        H  0.38725595  0.78829603  0.18017102     0.40500
H917        H  0.55957757  0.87581156  0.12619857     0.40100
H918        H  0.55570430  0.88832813  0.17494819     0.35000
C919        C  0.51171204  0.11284456  0.14617384    -0.26700
C920        C  0.48560351  0.11565641  0.11330497    -0.14800
C921        C  0.45658965  0.14658060  0.11140715     0.35800
C922        C  0.45470489  0.17488054  0.14234155    -0.26200
C923        C  0.48148729  0.17252502  0.17480688    -0.15400
C924        C  0.51041341  0.14146114  0.17659755     0.36900
N925        N  0.53979823  0.14009223  0.20821407    -0.89700
H926        H  0.53413374  0.08911229  0.14756537     0.18000
H927        H  0.43276580  0.19902679  0.14078513     0.18000
N928        N  0.42872405  0.14888562  0.07852840    -0.88700
H929        H  0.53713575  0.11237998  0.22293555     0.35400
H930        H  0.56856624  0.14164013  0.19519101     0.40500
H931        H  0.43224619  0.17692238  0.06462549     0.40100
H932        H  0.39937996  0.14730364  0.09019983     0.35000
C933        C  0.33359422  0.95620534  0.13041562    -0.26700
C934        C  0.35904284  0.98925376  0.12321081    -0.14800
C935        C  0.35149397  0.02574847  0.14330922     0.35800
C936        C  0.32032651  0.02780332  0.17183234    -0.26200
C937        C  0.29682100  0.99379898  0.18165003    -0.15400
C938        C  0.30299270  0.95775947  0.15977997     0.36900
N939        N  0.28067860  0.92157828  0.16831373    -0.89700
H940        H  0.33835308  0.92851297  0.11390758     0.18000
H941        H  0.31674720  0.05520669  0.18909278     0.18000
N942        N  0.37540684  0.06094134  0.13570961    -0.88700
H943        H  0.26528834  0.91357262  0.14207988     0.35400
H944        H  0.25850611  0.92649349  0.19015013     0.40500
H945        H  0.37331692  0.06809355  0.10512753     0.40100
H946        H  0.40557277  0.05426249  0.14218577     0.35000
C947        C  0.67800581  0.95646174  0.81088316    -0.26700
C948        C  0.66857074  0.96933101  0.77197529    -0.14800
C949        C  0.62755391  0.97732388  0.76289831     0.35800
C950        C  0.59773803  0.97615684  0.79354997    -0.26200
C951        C  0.60794280  0.96744774  0.83381256    -0.15400
C952        C  0.64842665  0.95526401  0.84154076     0.36900
N953        N  0.66023529  0.94208090  0.88074241    -0.89700
H954        H  0.70919766  0.95000861  0.81840881     0.18000
H955        H  0.56695776  0.98427341  0.78605624     0.18000
N956        N  0.61650061  0.98865176  0.72278380    -0.88700
H957        H  0.68324197  0.96104362  0.89094417     0.35400
H958        H  0.67231012  0.91321352  0.87769733     0.40500
H959        H  0.60309419  0.01709631  0.72385803     0.40100
H960        H  0.59485484  0.96822155  0.71255126     0.35000
C961        C  0.28449481  0.93386646  0.83138726    -0.26700
C962        C  0.26987282  0.96638669  0.80848834    -0.14800
C963        C  0.28450889  0.00547939  0.81735045     0.35800
C964        C  0.31633928  0.01055318  0.84481935    -0.26200
C965        C  0.33394335  0.97726717  0.86387940    -0.15400
C966        C  0.31651308  0.93889821  0.85883086     0.36900
N967        N  0.33331613  0.90475745  0.87953056    -0.89700
H968        H  0.27431544  0.90374100  0.82421057     0.18000
H969        H  0.32859724  0.04035724  0.84985591     0.18000
N970        N  0.27001282  0.04005495  0.79600576    -0.88700
H971        H  0.31806448  0.87841698  0.87155116     0.35400
H972        H  0.32830620  0.90879788  0.91033239     0.40500
H973        H  0.23870600  0.04159463  0.80006023     0.40100
H974        H  0.27589672  0.03639281  0.76531054     0.35000
C975        C  0.54024682  0.18192746  0.31745540    -0.26700
C976        C  0.50552323  0.20605102  0.31354485    -0.14800
C977        C  0.47345908  0.20063436  0.34120452     0.35800
C978        C  0.47632989  0.17073507  0.37132928    -0.26200
C979        C  0.50986474  0.14491902  0.37321727    -0.15400
C980        C  0.54251251  0.15129708  0.34649700     0.36900
N981        N  0.57807895  0.12674166  0.34782345    -0.89700
H982        H  0.56438923  0.18466032  0.29549060     0.18000
H983        H  0.45152335  0.16631658  0.39226403     0.18000
N984        N  0.43703079  0.22368885  0.33677288    -0.88700
H985        H  0.56978240  0.09693075  0.34232075     0.35400
H986        H  0.59041129  0.12845830  0.37671351     0.40500
H987        H  0.44439439  0.25384507  0.34176270     0.40100
H988        H  0.41594900  0.21561441  0.35887431     0.35000
C989        C  0.51061098  0.83532984  0.38836192    -0.26700
C990        C  0.52901474  0.87230532  0.37806200    -0.14800
C991        C  0.54553268  0.87603310  0.33875984     0.35800
C992        C  0.54171707  0.84425304  0.31102064    -0.26200
C993        C  0.52075320  0.80848040  0.32047393    -0.15400
C994        C  0.50552182  0.80397210  0.36015163     0.36900
N995        N  0.48254459  0.76924529  0.37227758    -0.89700
H996        H  0.49795249  0.83144742  0.41819263     0.18000
H997        H  0.55291816  0.84868851  0.28064448     0.18000
N998        N  0.56612525  0.91172369  0.32578752    -0.88700
H999        H  0.49826318  0.75522261  0.39567435     0.35400
H1000       H  0.48055845  0.74817069  0.34915009     0.40500
H1001       H  0.58939098  0.91792830  0.34608661     0.40100
H1002       H  0.54572022  0.93566875  0.32559748     0.35000
C1003       C  0.54021304  0.15271915  0.67336447    -0.26700
C1004       C  0.51896562  0.15430896  0.63684008    -0.14800
C1005       C  0.49531350  0.18893522  0.62861299     0.35800
C1006       C  0.49181827  0.21975291  0.65740007    -0.26200
C1007       C  0.51138195  0.21712806  0.69463975    -0.15400
C1008       C  0.53670701  0.18353131  0.70207581     0.36900
N1009       N  0.55735823  0.17886269  0.73964907    -0.89700
H1010       H  0.55873592  0.12680790  0.68024845     0.18000
H1011       H  0.47102306  0.24432477  0.65189142     0.18000
N1012       N  0.47249490  0.19184581  0.59213660    -0.88700
H1013       H  0.53600720  0.17744253  0.76281146     0.35400
H1014       H  0.57542353  0.20426252  0.74413485     0.40500
H1015       H  0.48117674  0.21822174  0.57723684     0.40100
H1016       H  0.44189938  0.19437152  0.59969684     0.35000
C1017       C  0.54026041  0.88704478  0.68487624    -0.26700
C1018       C  0.53858639  0.87826863  0.64347478    -0.14800
C1019       C  0.53403893  0.83715596  0.63213423     0.35800
C1020       C  0.52907777  0.80710511  0.66158185    -0.26200
C1021       C  0.52776088  0.81642471  0.70251078    -0.15400
C1022       C  0.53468941  0.85674178  0.71439257     0.36900
N1023       N  0.53477770  0.86698955  0.75642533    -0.89700
H1024       H  0.54392252  0.91793202  0.69438302     0.18000
H1025       H  0.52271418  0.77657180  0.65210261     0.18000
N1026       N  0.53204365  0.82551321  0.59068575    -0.88700
H1027       H  0.54091474  0.89760467  0.76021870     0.35400
H1028       H  0.50572587  0.86220647  0.76784677     0.40500
H1029       H  0.50401919  0.81185670  0.58567483     0.40100
H1030       H  0.55456313  0.80412412  0.58537528     0.35000
C1031       C  0.36703046  0.96336908  0.37834619    -0.26700
C1032       C  0.38622500  0.00042364  0.38377192    -0.14800
C1033       C  0.37693071  0.03371488  0.35934687     0.35800
C1034       C  0.34801106  0.02914009  0.32924496    -0.26200
C1035       C  0.32870176  0.99206966  0.32393319    -0.15400
C1036       C  0.33813399  0.95895909  0.34827534     0.36900
N1037       N  0.31880783  0.92093937  0.34202188    -0.89700
H1038       H  0.37506074  0.93777058  0.39695496     0.18000
H1039       H  0.34014428  0.05442836  0.31014780     0.18000
N1040       N  0.39685141  0.07170823  0.36537013    -0.88700
H1041       H  0.30443063  0.91260838  0.36883870     0.35400
H1042       H  0.34122255  0.89965070  0.33589256     0.40500
H1043       H  0.38859819  0.08222658  0.39386125     0.40100
H1044       H  0.38655517  0.09300551  0.34458372     0.35000
C1045       C  0.64983353  0.08320173  0.66205527    -0.26700
C1046       C  0.66251735  0.06457642  0.62618137    -0.14800
C1047       C  0.70425003  0.06583954  0.61655172     0.35800
C1048       C  0.73174459  0.07736413  0.64636515    -0.26200
C1049       C  0.71820198  0.07972690  0.68651203    -0.15400
C1050       C  0.67836551  0.09422037  0.69105630     0.36900
N1051       N  0.66546350  0.11441654  0.72694958    -0.89700
H1052       H  0.61806600  0.08797462  0.66814684     0.18000
H1053       H  0.76364879  0.07546072  0.63944433     0.18000
N1054       N  0.71917020  0.05342009  0.57802088    -0.88700
H1055       H  0.65465888  0.14269633  0.71836404     0.35400
H1056       H  0.69044467  0.11959897  0.74546594     0.40500
H1057       H  0.73872184  0.02916721  0.58251613     0.40100
H1058       H  0.73613553  0.07704892  0.56580121     0.35000
C1059       C  0.36602305  0.01788135  0.64694612    -0.26700
C1060       C  0.39990713  0.99282333  0.64623688    -0.14800
C1061       C  0.39851039  0.95454132  0.66443622     0.35800
C1062       C  0.36190074  0.94104612  0.68101509    -0.26200
C1063       C  0.32724111  0.96525681  0.67926328    -0.15400
C1064       C  0.32981985  0.00460164  0.66368807     0.36900
N1065       N  0.29591837  0.03137029  0.66558109    -0.89700
H1066       H  0.36724617  0.04725343  0.63281823     0.18000
H1067       H  0.36018880  0.91162689  0.69505002     0.18000
N1068       N  0.43374032  0.92921365  0.66478852    -0.88700
H1069       H  0.28901412  0.04061976  0.63629691     0.35400
H1070       H  0.30449164  0.05674955  0.68200872     0.40500
H1071       H  0.44037359  0.92135484  0.63504740     0.40100
H1072       H  0.42773512  0.90235561  0.68013910     0.35000
C1073       C  0.69247834  0.02749612  0.12625661    -0.26700
C1074       C  0.69920967  0.99816199  0.15620675    -0.14800
C1075       C  0.67385746  0.96373135  0.15626122     0.35800
C1076       C  0.64155534  0.96056665  0.12866915    -0.26200
C1077       C  0.63392002  0.99069568  0.09985780    -0.15400
C1078       C  0.66050613  0.02406858  0.09812639     0.36900
N1079       N  0.65377740  0.05542574  0.06904964    -0.89700
H1080       H  0.71071591  0.05458543  0.12651701     0.18000
H1081       H  0.62196620  0.93446286  0.13004044     0.18000
N1082       N  0.67942302  0.93203663  0.18496353    -0.88700
H1083       H  0.67575898  0.07788606  0.07162667     0.35400
H1084       H  0.62602472  0.06890230  0.07573687     0.40500
H1085       H  0.67754400  0.94401709  0.21389016     0.40100
H1086       H  0.70853390  0.92046175  0.18110101     0.35000
C1087       C  0.69402732  0.07132225  0.32472293    -0.26700
C1088       C  0.68311442  0.05045208  0.28948141    -0.14800
C1089       C  0.64892335  0.02500268  0.29034431     0.35800
C1090       C  0.62918648  0.01800185  0.32644995    -0.26200
C1091       C  0.64221697  0.03580656  0.36228981    -0.15400
C1092       C  0.67410911  0.06377086  0.36131027     0.36900
N1093       N  0.68645043  0.08424334  0.39711235    -0.89700
H1094       H  0.72008215  0.09111243  0.32446313     0.18000
H1095       H  0.60399559  0.99711065  0.32644263     0.18000
N1096       N  0.63562851  0.00354745  0.25544654    -0.88700
H1097       H  0.68372294  0.11518098  0.39208301     0.35400
H1098       H  0.71698965  0.07788259  0.40204524     0.40500
H1099       H  0.60574788  0.01187300  0.24956926     0.40100
H1100       H  0.63579927  0.97282386  0.26222499     0.35000
C1101       C  0.37562974  0.79982520  0.49973048    -0.26700
C1102       C  0.33771854  0.80674022  0.51757935    -0.14800
C1103       C  0.33277516  0.84252318  0.54040274     0.35800
C1104       C  0.36401596  0.87149787  0.54162438    -0.26200
C1105       C  0.40112476  0.86596282  0.52143950    -0.15400
C1106       C  0.40750658  0.82840477  0.50204248     0.36900
N1107       N  0.44534616  0.82022382  0.48243663    -0.89700
H1108       H  0.37960497  0.77298574  0.48173067     0.18000
H1109       H  0.35870473  0.89922734  0.55787220     0.18000
N1110       N  0.29586791  0.85112418  0.56166898    -0.88700
H1111       H  0.44418221  0.79270275  0.46732411     0.35400
H1112       H  0.46713321  0.81682563  0.50491468     0.40500
H1113       H  0.27542690  0.82725415  0.55992420     0.40100
H1114       H  0.28236384  0.87600082  0.54790430     0.35000
C1115       C  0.69079153  0.81641150  0.51441089    -0.26700
C1116       C  0.72883153  0.82452771  0.49787283    -0.14800
C1117       C  0.73916050  0.86529093  0.48971479     0.35800
C1118       C  0.71002145  0.89614265  0.49473481    -0.26200
C1119       C  0.67057981  0.88747856  0.50816078    -0.15400
C1120       C  0.66200825  0.84716477  0.52002898     0.36900
N1121       N  0.62372360  0.83687009  0.53746791    -0.89700
H1122       H  0.68243519  0.78557813  0.52107255     0.18000
H1123       H  0.71774296  0.92675556  0.48652163     0.18000
N1124       N  0.77885960  0.87493840  0.47481244    -0.88700
H1125       H  0.62893469  0.82418073  0.56580363     0.35400
H1126       H  0.61008765  0.81508181  0.51936307     0.40500
H1127       H  0.79963966  0.86720586  0.49717636     0.40100
H1128       H  0.78178654  0.90590309  0.47004879     0.35000
C1129       C  0.69770991  0.20593465  0.51657742    -0.26700
C1130       C  0.69636425  0.22777572  0.48020055    -0.14800
C1131       C  0.66438771  0.22007021  0.45335239     0.35800
C1132       C  0.63742021  0.18815966  0.46078508    -0.26200
C1133       C  0.64192073  0.16327335  0.49466014    -0.15400
C1134       C  0.67067798  0.17378071  0.52408477     0.36900
N1135       N  0.67244172  0.15165604  0.56121325    -0.89700
H1136       H  0.72246286  0.21119590  0.53720845     0.18000
H1137       H  0.61436436  0.18131073  0.43870738     0.18000
N1138       N  0.66184282  0.24219985  0.41642517    -0.88700
H1139       H  0.69510245  0.16316385  0.57980125     0.35400
H1140       H  0.68072400  0.12223314  0.55423560     0.40500
H1141       H  0.66426587  0.22184105  0.39260726     0.40100
H1142       H  0.63323676  0.25545605  0.41505853     0.35000
C1143       C  0.31750841  0.16346254  0.53818403    -0.26700
C1144       C  0.31699513  0.19533138  0.51000030    -0.14800
C1145       C  0.35079667  0.20045067  0.48448924     0.35800
C1146       C  0.38273424  0.17216956  0.48601938    -0.26200
C1147       C  0.38097949  0.13820099  0.51157706    -0.15400
C1148       C  0.34844442  0.13457179  0.53867663     0.36900
N1149       N  0.34682959  0.10150179  0.56658987    -0.89700
H1150       H  0.29218780  0.15983419  0.55865071     0.18000
H1151       H  0.40833024  0.17569155  0.46589174     0.18000
N1152       N  0.35207652  0.23327565  0.45630099    -0.88700
H1153       H  0.32056257  0.10282563  0.58410900     0.35400
H1154       H  0.37115766  0.10473701  0.58633658     0.40500
H1155       H  0.32895780  0.22881695  0.43539195     0.40100
H1156       H  0.37922808  0.23296116  0.44011861     0.35000
C1157       C  0.86193087  0.95455259  0.65355626    -0.26700
C1158       C  0.84978219  0.95352563  0.61278305    -0.14800
C1159       C  0.80786664  0.95079238  0.60485249     0.35800
C1160       C  0.77964291  0.95377914  0.63674139    -0.26200
C1161       C  0.79203260  0.95883421  0.67695964    -0.15400
C1162       C  0.83389190  0.95727153  0.68539375     0.36900
N1163       N  0.84914446  0.96106225  0.72569120    -0.89700
H1164       H  0.89375831  0.95529108  0.66108836     0.18000
H1165       H  0.74773673  0.95548624  0.62959440     0.18000
N1166       N  0.79355759  0.94628192  0.56447683    -0.88700
H1167       H  0.86534007  0.93486127  0.73220307     0.35400
H1168       H  0.82557627  0.96215539  0.74663009     0.40500
H1169       H  0.77479768  0.97063045  0.55772782     0.40100
H1170       H  0.77611869  0.92007525  0.56321787     0.35000
C1171       C  0.11419127  0.94844827  0.65394562    -0.26700
C1172       C  0.11819396  0.97581776  0.62159331    -0.14800
C1173       C  0.15263300  0.00080160  0.62051251     0.35800
C1174       C  0.18195529  0.99802408  0.65082158    -0.26200
C1175       C  0.17959203  0.96898641  0.68163931    -0.15400
C1176       C  0.14488659  0.94420229  0.68348226     0.36900
N1177       N  0.14208614  0.91319061  0.71354562    -0.89700
H1178       H  0.08800618  0.92889486  0.65504881     0.18000
H1179       H  0.20830969  0.01733091  0.64881301     0.18000
N1180       N  0.15845245  0.02894001  0.58834327    -0.88700
H1181       H  0.11566208  0.89638109  0.70965726     0.35400
H1182       H  0.13946266  0.92724230  0.74151813     0.40500
H1183       H  0.18548429  0.02170152  0.57368249     0.40100
H1184       H  0.16187352  0.05747308  0.60103018     0.35000
C1185       C  0.18042459  0.03394506  0.31823708    -0.26700
C1186       C  0.18583850  0.00189029  0.29098928    -0.14800
C1187       C  0.15722357  0.97013757  0.29117075     0.35800
C1188       C  0.12640077  0.96983700  0.32041166    -0.26200
C1189       C  0.12416709  0.99956760  0.35037025    -0.15400
C1190       C  0.15081046  0.03257682  0.34839667     0.36900
N1191       N  0.14913098  0.06463645  0.37709817    -0.89700
H1192       H  0.20221575  0.05831978  0.31871504     0.18000
H1193       H  0.10526617  0.94489546  0.32104879     0.18000
N1194       N  0.15997415  0.93642125  0.26430275    -0.88700
H1195       H  0.15471478  0.05283761  0.40571972     0.35400
H1196       H  0.12004638  0.07682306  0.37689804     0.40500
H1197       H  0.18378195  0.93971294  0.24396001     0.40100
H1198       H  0.13355484  0.93593763  0.24711270     0.35000
C1199       C  0.82675260  0.95711862  0.33638830    -0.26700
C1200       C  0.86243746  0.98004162  0.33642422    -0.14800
C1201       C  0.87122968  0.00375158  0.30179935     0.35800
C1202       C  0.84399879  0.00462313  0.26903310    -0.26200
C1203       C  0.80725973  0.98345746  0.26992099    -0.15400
C1204       C  0.79941384  0.95828917  0.30383399     0.36900
N1205       N  0.76230354  0.93603215  0.30765397    -0.89700
H1206       H  0.81933957  0.93883731  0.36236006     0.18000
H1207       H  0.84948820  0.02536991  0.24440269     0.18000
N1208       N  0.90646497  0.02914751  0.30100065    -0.88700
H1209       H  0.76987662  0.90560804  0.30995480     0.35400
H1210       H  0.74477280  0.93865146  0.28169252     0.40500
H1211       H  0.90280676  0.05097448  0.32332662     0.40100
H1212       H  0.90862408  0.04460673  0.27363575     0.35000
C1213       C  0.13872691  0.83585661  0.43618681    -0.26700
C1214       C  0.13986839  0.86969668  0.46115252    -0.14800
C1215       C  0.17717570  0.88257630  0.47721461     0.35800
C1216       C  0.21158786  0.85962990  0.47095738    -0.26200
C1217       C  0.20983726  0.82312664  0.44994569    -0.15400
C1218       C  0.17358362  0.81279440  0.42987217     0.36900
N1219       N  0.17174835  0.77840035  0.40404380    -0.89700
H1220       H  0.11069028  0.82700685  0.42191017     0.18000
H1221       H  0.23871537  0.86874759  0.48659362     0.18000
N1222       N  0.18006654  0.91769095  0.50207607    -0.88700
H1223       H  0.16314871  0.78827251  0.37542254     0.35400
H1224       H  0.14894264  0.75931366  0.41472308     0.40500
H1225       H  0.20102415  0.93733608  0.48894796     0.40100
H1226       H  0.19108020  0.90905653  0.53027549     0.35000
C1227       C  0.86401335  0.76964014  0.40791523    -0.26700
C1228       C  0.82463868  0.78177044  0.39720372    -0.14800
C1229       C  0.82119518  0.82232499  0.38512609     0.35800
C1230       C  0.84593564  0.85068861  0.40394370    -0.26200
C1231       C  0.87763868  0.83799409  0.42911282    -0.15400
C1232       C  0.88949107  0.79706754  0.42743546     0.36900
N1233       N  0.92615110  0.78321272  0.44611041    -0.89700
H1234       H  0.87162776  0.73806418  0.40925688     0.18000
H1235       H  0.84020037  0.88235526  0.39917274     0.18000
N1236       N  0.79116226  0.83520567  0.35679342    -0.88700
H1237       H  0.93034037  0.75245609  0.44111009     0.35400
H1238       H  0.92304304  0.78676865  0.47720237     0.40500
H1239       H  0.77372272  0.81060164  0.34774234     0.40100
H1240       H  0.77191276  0.85574825  0.37089158     0.35000
C1241       C  0.83448999  0.10690765  0.42803858    -0.26700
C1242       C  0.84756378  0.10149176  0.46786556    -0.14800
C1243       C  0.84336491  0.13268114  0.49601283     0.35800
C1244       C  0.82872215  0.16974681  0.48327042    -0.26200
C1245       C  0.81747081  0.17597971  0.44311448    -0.15400
C1246       C  0.81901067  0.14414417  0.41553554     0.36900
N1247       N  0.80588964  0.14993171  0.37491985    -0.89700
H1248       H  0.83880397  0.08320344  0.40610348     0.18000
H1249       H  0.82541610  0.19389853  0.50491904     0.18000
N1250       N  0.85596006  0.12694318  0.53699852    -0.88700
H1251       H  0.83023208  0.14358115  0.35583858     0.35400
H1252       H  0.78301334  0.12904514  0.36907126     0.40500
H1253       H  0.83746369  0.10470963  0.54962252     0.40100
H1254       H  0.85108543  0.15310031  0.55371783     0.35000
C1255       C  0.13480843  0.12236443  0.52897235    -0.26700
C1256       C  0.10694916  0.12384738  0.49741463    -0.14800
C1257       C  0.10964131  0.15432354  0.46773532     0.35800
C1258       C  0.14091942  0.18230279  0.47034856    -0.26200
C1259       C  0.16991331  0.17950498  0.50084815    -0.15400
C1260       C  0.16635124  0.14995914  0.53097962     0.36900
N1261       N  0.19466666  0.14797182  0.56351300    -0.89700
H1262       H  0.13232673  0.09919661  0.55176223     0.18000
H1263       H  0.14379867  0.20518296  0.44720722     0.18000
N1264       N  0.08277485  0.15691859  0.43379757    -0.88700
H1265       H  0.20826985  0.11959539  0.56308169     0.35400
H1266       H  0.17861851  0.15063252  0.59052350     0.40500
H1267       H  0.06167724  0.13366237  0.43335931     0.40100
H1268       H  0.10017340  0.15346753  0.40771495     0.35000
C1269       C  0.00011731  0.65593931  0.17317413    -0.26700
C1270       C  0.96530588  0.68019052  0.17557545    -0.14800
C1271       C  0.93390130  0.67311411  0.14778782     0.35800
C1272       C  0.93738377  0.64202924  0.11895618    -0.26200
C1273       C  0.97129729  0.61649831  0.11797503    -0.15400
C1274       C  0.00358124  0.62459405  0.14451029     0.36900
N1275       N  0.03973497  0.60080127  0.14237232    -0.89700
H1276       H  0.02400349  0.66039652  0.19496248     0.18000
H1277       H  0.91275896  0.63691260  0.09813225     0.18000
N1278       N  0.89754877  0.69634360  0.14995165    -0.88700
H1279       H  0.06064834  0.61042658  0.16383484     0.35400
H1280       H  0.05299749  0.60593207  0.11421763     0.40500
H1281       H  0.87339992  0.67658929  0.15479014     0.40100
H1282       H  0.89327399  0.71028107  0.12204602     0.35000
C1283       C  0.01265668  0.79987613  0.29434336    -0.26700
C1284       C  0.97684142  0.80277521  0.27142729    -0.14800
C1285       C  0.95110855  0.83590219  0.27840270     0.35800
C1286       C  0.96047806  0.86387310  0.30893331    -0.26200
C1287       C  0.99410322  0.85865211  0.33427996    -0.15400
C1288       C  0.02107818  0.82700368  0.32596099     0.36900
N1289       N  0.05649278  0.82171604  0.35007079    -0.89700
H1290       H  0.03202192  0.77387116  0.29053264     0.18000
H1291       H  0.93969688  0.88833795  0.31493623     0.18000
N1292       N  0.91353133  0.83878191  0.25702511    -0.88700
H1293       H  0.08168883  0.82282059  0.33103654     0.35400
H1294       H  0.05531500  0.79303188  0.36300239     0.40500
H1295       H  0.92042601  0.84306262  0.22659478     0.40100
H1296       H  0.89730554  0.86410728  0.26631001     0.35000
C1297       C  0.96141560  0.30336064  0.79807342    -0.26700
C1298       C  0.98916484  0.27132558  0.80166005    -0.14800
C1299       C  0.01624890  0.27206297  0.83467676     0.35800
C1300       C  0.01663615  0.30541311  0.86102432    -0.26200
C1301       C  0.99122439  0.33897837  0.85523342    -0.15400
C1302       C  0.96242591  0.33688958  0.82391712     0.36900
N1303       N  0.93361764  0.36830189  0.81766206    -0.89700
H1304       H  0.94098865  0.30399320  0.77262338     0.18000
H1305       H  0.03808228  0.30563081  0.88562484     0.18000
N1306       N  0.04540720  0.24065881  0.84100825    -0.88700
H1307       H  0.94921586  0.39490210  0.81128123     0.35400
H1308       H  0.91730133  0.37201026  0.84435983     0.40500
H1309       H  0.04163678  0.21741290  0.82029100     0.40100
H1310       H  0.03960158  0.22804552  0.86929666     0.35000
C1311       C  0.00452588  0.09302506  0.66229220    -0.26700
C1312       C  0.97794855  0.09999142  0.62982775    -0.14800
C1313       C  0.95311746  0.13442098  0.63147952     0.35800
C1314       C  0.95681012  0.16193977  0.66355030    -0.26200
C1315       C  0.98595306  0.15697964  0.69400296    -0.15400
C1316       C  0.00932345  0.12133541  0.69358056     0.36900
N1317       N  0.03966094  0.11419256  0.72340034    -0.89700
H1318       H  0.02365594  0.06658513  0.66207141     0.18000
H1319       H  0.93920747  0.18940822  0.66264376     0.18000
N1320       N  0.92435320  0.14201229  0.60033459    -0.88700
H1321       H  0.06072039  0.13762445  0.72218683     0.35400
H1322       H  0.02570444  0.11473638  0.75166014     0.40500
H1323       H  0.93105995  0.16996181  0.58743344     0.40100
H1324       H  0.89581171  0.14398693  0.61376345     0.35000
C1325       C  0.95105567  0.68217485  0.83496212    -0.26700
C1326       C  0.97475458  0.68496489  0.79988837    -0.14800
C1327       C  0.00570649  0.65615152  0.79451243     0.35800
C1328       C  0.00887618  0.62266068  0.82112566    -0.26200
C1329       C  0.98278153  0.61840814  0.85458340    -0.15400
C1330       C  0.95457022  0.64963033  0.86187148     0.36900
N1331       N  0.92764196  0.64745058  0.89568209    -0.89700
H1332       H  0.92712780  0.70389696  0.83983919     0.18000
H1333       H  0.03204261  0.60027112  0.81586239     0.18000
N1334       N  0.03404724  0.66104745  0.76222476    -0.88700
H1335       H  0.89795235  0.64770851  0.88496563     0.35400
H1336       H  0.93185713  0.67323604  0.91312884     0.40500
H1337       H  0.03345513  0.63550688  0.74417771     0.40100
H1338       H  0.06292392  0.66307690  0.77475269     0.35000
C1339       C  0.98798006  0.79588317  0.60027384    -0.26700
C1340       C  0.99247720  0.83650537  0.61092532    -0.14800
C1341       C  0.99428346  0.84569987  0.65284667     0.35800
C1342       C  0.98782767  0.81547105  0.68218097    -0.26200
C1343       C  0.97998493  0.77562388  0.67126200    -0.15400
C1344       C  0.98204434  0.76568415  0.62974322     0.36900
N1345       N  0.97711528  0.72481614  0.61718603    -0.89700
H1346       H  0.98749571  0.78748207  0.56879693     0.18000
H1347       H  0.98666788  0.82378348  0.71367554     0.18000
N1348       N  0.00196563  0.88591091  0.66620403    -0.88700
H1349       H  0.95314055  0.72375086  0.59680472     0.35400
H1350       H  0.00327298  0.71623065  0.60173112     0.40500
H1351       H  0.02774484  0.88546281  0.68433522     0.40100
H1352       H  0.97752973  0.89515434  0.68392558     0.35000
C1353       C  0.19587781  0.63241365  0.50575746    -0.26700
C1354       C  0.15746789  0.64275960  0.52150723    -0.14800
C1355       C  0.15305777  0.68116079  0.53878718     0.35800
C1356       C  0.18600078  0.70822366  0.53907185    -0.26200
C1357       C  0.22335105  0.69900761  0.52046345    -0.15400
C1358       C  0.22833408  0.65990878  0.50447103     0.36900
N1359       N  0.26476579  0.64795825  0.48406028    -0.89700
H1360       H  0.20042157  0.60314058  0.49223070     0.18000
H1361       H  0.18099141  0.73844015  0.55019600     0.18000
N1362       N  0.11487535  0.69353673  0.55487557    -0.88700
H1363       H  0.27664922  0.62330893  0.49962243     0.35400
H1364       H  0.28673893  0.67045230  0.48539349     0.40500
H1365       H  0.10553157  0.71915996  0.53914499     0.40100
H1366       H  0.11909792  0.70154725  0.58497457     0.35000
C1367       C  0.85750559  0.37925965  0.45678882    -0.26700
C1368       C  0.88911367  0.37152274  0.48412026    -0.14800
C1369       C  0.88767692  0.33549865  0.50686933     0.35800
C1370       C  0.85536593  0.30849888  0.50185110    -0.26200
C1371       C  0.82449397  0.31570301  0.47367356    -0.15400
C1372       C  0.82602887  0.35146928  0.45071836     0.36900
N1373       N  0.79704037  0.35939627  0.41977269    -0.89700
H1374       H  0.85802554  0.40658055  0.43891369     0.18000
H1375       H  0.85538893  0.28054076  0.51871781     0.18000
N1376       N  0.91836333  0.32557679  0.53547425    -0.88700
H1377       H  0.76825618  0.35927929  0.43282678     0.35400
H1378       H  0.79840759  0.33608950  0.39875059     0.40500
H1379       H  0.92048918  0.34910415  0.55617294     0.40100
H1380       H  0.94590427  0.32281765  0.52027434     0.35000
C1381       C  0.20397350  0.33143716  0.45876984    -0.26700
C1382       C  0.22007471  0.31734450  0.49538885    -0.14800
C1383       C  0.20904054  0.33710959  0.53122368     0.35800
C1384       C  0.18108888  0.36899201  0.53024625    -0.26200
C1385       C  0.16266262  0.38079910  0.49413846    -0.15400
C1386       C  0.17490321  0.36251014  0.45784661     0.36900
N1387       N  0.15606081  0.37386506  0.42060390    -0.89700
H1388       H  0.21091193  0.31526532  0.43132762     0.18000
H1389       H  0.17148422  0.38259022  0.55825338     0.18000
N1390       N  0.22319414  0.32221987  0.56911905    -0.88700
H1391       H  0.16798518  0.35720017  0.39672163     0.35400
H1392       H  0.16335755  0.40390358  0.41494596     0.40500
H1393       H  0.23765416  0.34583390  0.58401430     0.40100
H1394       H  0.19805913  0.31368668  0.58628948     0.35000
C1395       C  0.88595497  0.67570525  0.52523316    -0.26700
C1396       C  0.87854842  0.63552207  0.51392333    -0.14800
C1397       C  0.83847471  0.62532605  0.50235003     0.35800
C1398       C  0.80850454  0.65535475  0.49936435    -0.26200
C1399       C  0.81692037  0.69588897  0.50765330    -0.15400
C1400       C  0.85583377  0.70554291  0.52247176     0.36900
N1401       N  0.86626131  0.74599939  0.53287153    -0.89700
H1402       H  0.91586504  0.68456264  0.53499963     0.18000
H1403       H  0.77925941  0.64742983  0.48705457     0.18000
N1404       N  0.82825344  0.58499131  0.49120076    -0.88700
H1405       H  0.84665403  0.75539908  0.55569413     0.35400
H1406       H  0.86162350  0.76442038  0.50780127     0.40500
H1407       H  0.81802172  0.58531246  0.46144858     0.40100
H1408       H  0.80443642  0.57535921  0.50960550     0.35000
C1409       C  0.19208197  0.48928922  0.37896065    -0.26700
C1410       C  0.16339080  0.52045680  0.37747785    -0.14800
C1411       C  0.16661695  0.54951231  0.34658009     0.35800
C1412       C  0.19528081  0.54441437  0.31581862    -0.26200
C1413       C  0.22072726  0.51051739  0.31468062    -0.15400
C1414       C  0.22025804  0.48355570  0.34771353     0.36900
N1415       N  0.24585010  0.44865855  0.34915936    -0.89700
H1416       H  0.19102522  0.46772545  0.40339806     0.18000
H1417       H  0.19516031  0.56519158  0.29061726     0.18000
N1418       N  0.14109601  0.58428586  0.34551912    -0.88700
H1419       H  0.26385818  0.45110852  0.37484693     0.35400
H1420       H  0.26575371  0.44812151  0.32472502     0.40500
H1421       H  0.14433740  0.59970092  0.37271228     0.40100
H1422       H  0.11105203  0.57505991  0.34276490     0.35000
C1423       C  0.86647289  0.52701282  0.29720151    -0.26700
C1424       C  0.82685792  0.51512360  0.30747587    -0.14800
C1425       C  0.81767078  0.50909248  0.34859548     0.35800
C1426       C  0.84835139  0.51178409  0.37766143    -0.26200
C1427       C  0.88881208  0.52077247  0.36719138    -0.15400
C1428       C  0.89715423  0.53036728  0.32648166     0.36900
N1429       N  0.93673223  0.54315096  0.31443561    -0.89700
H1430       H  0.87408770  0.53222543  0.26587346     0.18000
H1431       H  0.84044286  0.50523219  0.40865001     0.18000
N1432       N  0.77784298  0.49809529  0.36159906    -0.88700
H1433       H  0.93423764  0.57165303  0.30129037     0.35400
H1434       H  0.94737924  0.52324449  0.29253714     0.40500
H1435       H  0.76931419  0.47165254  0.34692469     0.40100
H1436       H  0.75794471  0.52104214  0.35333313     0.35000
C1437       C  0.22485645  0.48314350  0.66048786    -0.26700
C1438       C  0.22188941  0.50568811  0.69594272    -0.14800
C1439       C  0.18761903  0.53096853  0.70100366     0.35800
C1440       C  0.15613241  0.53068517  0.67257387    -0.26200
C1441       C  0.15788868  0.50583965  0.63856508    -0.15400
C1442       C  0.19341391  0.48295283  0.63197873     0.36900
N1443       N  0.19667875  0.45736430  0.59750966    -0.89700
H1444       H  0.25002486  0.46264942  0.65661062     0.18000
H1445       H  0.12988229  0.54954381  0.67743702     0.18000
N1446       N  0.18322115  0.55579496  0.73592733    -0.88700
H1447       H  0.20093582  0.42789865  0.60770012     0.35400
H1448       H  0.22245502  0.46587762  0.58131829     0.40500
H1449       H  0.20857776  0.57448179  0.73774887     0.40100
H1450       H  0.18242194  0.53759850  0.76159111     0.35000
C1451       C  0.80836919  0.47133591  0.64387136    -0.26700
C1452       C  0.80660794  0.49331906  0.67997723    -0.14800
C1453       C  0.83986423  0.51880829  0.68915628     0.35800
C1454       C  0.87464246  0.51901570  0.66426507    -0.26200
C1455       C  0.87717651  0.49461982  0.62979216    -0.15400
C1456       C  0.84301885  0.47141257  0.61928006     0.36900
N1457       N  0.84407365  0.44617556  0.58438370    -0.89700
H1458       H  0.78371875  0.45124519  0.63631074     0.18000
H1459       H  0.89971689  0.53847081  0.67183262     0.18000
N1460       N  0.83972923  0.54396572  0.72406371    -0.88700
H1461       H  0.82021353  0.45450170  0.56556094     0.35400
H1462       H  0.83930551  0.41645356  0.59361299     0.40500
H1463       H  0.83511039  0.52611592  0.74957842     0.40100
H1464       H  0.81569465  0.56416539  0.72154076     0.35000
C1465       C  0.94968487  0.65429584  0.38753227    -0.26700
C1466       C  0.99177979  0.64896560  0.38883782    -0.14800
C1467       C  0.01628728  0.66170608  0.35685863     0.35800
C1468       C  0.99795733  0.67706828  0.32244657    -0.26200
C1469       C  0.95568523  0.67993546  0.31981279    -0.15400
C1470       C  0.93124369  0.66998475  0.35295919     0.36900
N1471       N  0.88818646  0.67516018  0.35099080    -0.89700
H1472       H  0.93111289  0.64362889  0.41230807     0.18000
H1473       H  0.01661735  0.68702028  0.29743758     0.18000
N1474       N  0.05946785  0.65739296  0.35908059    -0.88700
H1475       H  0.87468755  0.66622373  0.37807423     0.35400
H1476       H  0.87728585  0.65579929  0.32876932     0.40500
H1477       H  0.06961557  0.67570745  0.38251526     0.40100
H1478       H  0.07315359  0.66812503  0.33275459     0.35000
C1479       C  0.00674141  0.32739140  0.61126828    -0.26700
C1480       C  0.03318324  0.35918043  0.61891815    -0.14800
C1481       C  0.06335495  0.35530687  0.64856205     0.35800
C1482       C  0.06489727  0.32020238  0.67155188    -0.26200
C1483       C  0.03631958  0.28952543  0.66583125    -0.15400
C1484       C  0.00742358  0.29292981  0.63487993     0.36900
N1485       N  0.97682037  0.26292087  0.62922047    -0.89700
H1486       H  0.98409513  0.33012527  0.58798688     0.18000
H1487       H  0.08691898  0.31776345  0.69553080     0.18000
N1488       N  0.09260334  0.38624628  0.65580277    -0.88700
H1489       H  0.97879457  0.25251696  0.59961195     0.35400
H1490       H  0.94856040  0.27649349  0.63295798     0.40500
H1491       H  0.07750675  0.41226351  0.66494473     0.40100
H1492       H  0.10784239  0.39232676  0.62884847     0.35000
C1493       C  0.93278496  0.63688437  0.62568362    -0.26700
C1494       C  0.96261253  0.61270937  0.64371270    -0.14800
C1495       C  0.95878663  0.60371674  0.68496214     0.35800
C1496       C  0.93244295  0.62673972  0.70845781    -0.26200
C1497       C  0.91006699  0.65869292  0.69108692    -0.15400
C1498       C  0.90509094  0.65821654  0.64913452     0.36900
N1499       N  0.87347161  0.68097828  0.63051894    -0.89700
H1500       H  0.93099913  0.63943566  0.59330966     0.18000
H1501       H  0.93337318  0.62225791  0.74070543     0.18000
N1502       N  0.98135562  0.57166564  0.70307179    -0.88700
H1503       H  0.85534583  0.66093929  0.61440549     0.35400
H1504       H  0.88639662  0.70082628  0.60974724     0.40500
H1505       H  0.96073781  0.55085547  0.71483093     0.40100
H1506       H  0.99775564  0.58301248  0.72723402     0.35000
C1507       C  0.01478622  0.28448994  0.15095766    -0.26700
C1508       C  0.98113979  0.27926733  0.17623342    -0.14800
C1509       C  0.94646595  0.30282761  0.16942979     0.35800
C1510       C  0.94689056  0.33304873  0.13973206    -0.26200
C1511       C  0.98185417  0.34068188  0.11702933    -0.15400
C1512       C  0.01570355  0.31532141  0.12180854     0.36900
N1513       N  0.05175927  0.32252610  0.09869903    -0.89700
H1514       H  0.04205394  0.26754156  0.15712166     0.18000
H1515       H  0.92019767  0.35110876  0.13512415     0.18000
N1516       N  0.91246069  0.29890310  0.19586104    -0.88700
H1517       H  0.07407213  0.30152737  0.10607633     0.35400
H1518       H  0.06304459  0.35072145  0.10689715     0.40500
H1519       H  0.88649803  0.29509369  0.17840600     0.40100
H1520       H  0.90985566  0.32563985  0.21204920     0.35000
C1521       C  0.00602165  0.15197583  0.29373537    -0.26700
C1522       C  0.97711165  0.18253080  0.29706370    -0.14800
C1523       C  0.94844549  0.18064472  0.32858474     0.35800
C1524       C  0.95025445  0.14954341  0.35724068    -0.26200
C1525       C  0.98047619  0.12013374  0.35519856    -0.15400
C1526       C  0.00827875  0.12096715  0.32263748     0.36900
N1527       N  0.04004062  0.09157056  0.32024968    -0.89700
H1528       H  0.02885841  0.15409530  0.27037336     0.18000
H1529       H  0.92825395  0.14870048  0.38146793     0.18000
N1530       N  0.91849735  0.21147537  0.33249987    -0.88700
H1531       H  0.05865733  0.09571680  0.34524658     0.35400
H1532       H  0.05808431  0.09654627  0.29483088     0.40500
H1533       H  0.92208567  0.22500454  0.36064009     0.40100
H1534       H  0.89003949  0.19778643  0.33196630     0.35000
C1535       C  0.98715656  0.35499472  0.31049314    -0.26700
C1536       C  0.01635468  0.32450057  0.30941223    -0.14800
C1537       C  0.05186153  0.32770524  0.33240667     0.35800
C1538       C  0.05671136  0.36072983  0.35755360    -0.26200
C1539       C  0.02685077  0.39051535  0.35965432    -0.15400
C1540       C  0.99203153  0.38820438  0.33558204     0.36900
N1541       N  0.96061935  0.41793247  0.33893388    -0.89700
H1542       H  0.95997497  0.35218054  0.29254252     0.18000
H1543       H  0.08318374  0.36253862  0.37660071     0.18000
N1544       N  0.08322528  0.29807202  0.33068561    -0.88700
H1545       H  0.93608617  0.41046470  0.32062441     0.35400
H1546       H  0.97211317  0.44506603  0.32778509     0.40500
H1547       H  0.09268539  0.29534389  0.30077073     0.40100
H1548       H  0.07145221  0.27045279  0.34013034     0.35000
loop_ 
_geom_bond_atom_site_label_1 
_geom_bond_atom_site_label_2 
_geom_bond_distance 
_geom_bond_site_symmetry_2 
_ccdc_geom_bond_type 
C1            C2   1.420       .  A
C1            C6   1.400       .  A
C1         C1522   1.483       .  S
C2            C3   1.417       .  A
C2            H7   1.083       .  S
C3            C4   1.393   1_655  A
C3         C1508   1.477       .  S
C4            C5   1.383       .  A
C4            H8   1.086       .  S
C5            C6   1.390   1_455  A
C5         C1536   1.456       .  S
C6            H9   1.085   1_655  S
O10         Zr46   2.425       .  S
O10          C21   1.289       .  A
O11         Zr45   2.435       .  S
O11          C22   1.292       .  A
O12         Zr18   2.467       .  S
O12          C23   1.297       .  A
O13         Zr18   2.483   1_655  S
O13          C24   1.300       .  A
O14         Zr48   2.433       .  S
O14          C24   1.290       .  A
O15         Zr47   2.446       .  S
O15          C23   1.292       .  A
O16         Zr18   2.395       .  S
O16          C22   1.285       .  A
O17         Zr18   2.402       .  S
O17          C21   1.286       .  A
Zr18         O19   2.345   1_455  S
Zr18         O20   2.337       .  S
Zr18         O28   2.339   1_455  S
Zr18         O26   2.344       .  S
O19         Zr45   2.363   1_655  S
O19         Zr48   2.355       .  S
O20         Zr46   2.332       .  S
O20         Zr47   2.331       .  S
C21        C1539   1.448       .  S
C22        C1480   1.451       .  S
C23        C1385   1.485       .  S
C24        C1368   1.496       .  S
H25          O26   0.965       .  S
O26         Zr45   2.344       .  S
O26         Zr47   2.333       .  S
H27          O28   0.966       .  S
O28         Zr46   2.343   1_655  S
O28         Zr48   2.330       .  S
O29         Zr45   2.412       .  S
O29          C52   1.288   1_455  A
O30         Zr46   2.401       .  S
O30          C53   1.286       .  A
O31         Zr47   2.408       .  S
O31          C54   1.286       .  A
O32         Zr48   2.424       .  S
O32          C55   1.289       .  A
O33         Zr48   2.438       .  S
O33          C56   1.292       .  A
O34         Zr47   2.428       .  S
O34          C57   1.289       .  A
O35         Zr49   2.506       .  S
O35          C58   1.306       .  A
O36         Zr49   2.485   1_655  S
O36          C59   1.302       .  A
O37         Zr47   2.415       .  S
O37          C58   1.288       .  A
O38         Zr48   2.447       .  S
O38          C59   1.293       .  A
O39         Zr45   2.506       .  S
O39          C54   1.306       .  A
O40         Zr46   2.472       .  S
O40          C57   1.299       .  A
O41         Zr46   2.478   1_655  S
O41          C56   1.299       .  A
O42         Zr45   2.507   1_655  S
O42          C55   1.305       .  A
O43         Zr49   2.445       .  S
O43          C52   1.295   1_455  A
O44         Zr49   2.423       .  S
O44          C53   1.288       .  A
Zr45         O51   2.357       .  S
Zr45         O63   2.339   1_455  S
Zr46         O50   2.334   1_455  S
Zr46         O61   2.350       .  S
Zr47         O51   2.359       .  S
Zr47         O61   2.345       .  S
Zr48         O50   2.329       .  S
Zr48         O63   2.312       .  S
Zr49         O50   2.348   1_455  S
Zr49         O51   2.350       .  S
Zr49         O63   2.332   1_455  S
Zr49         O61   2.357       .  S
C52        C1494   1.472       .  S
C53        C1466   1.445   1_455  S
C54        C1441   1.495       .  S
C55        C1455   1.500       .  S
C56        C1427   1.509       .  S
C57        C1410   1.487       .  S
C58        C1354   1.509       .  S
C59        C1396   1.514       .  S
H60          O61   0.966       .  S
H62          O63   0.954       .  S
C64          C65   1.407       .  A
C64          C69   1.433       .  A
C64        C1326   1.507       .  S
C65          C66   1.391       .  A
C65          H70   1.085       .  S
C66          C67   1.401       .  A
C66        C1497   1.498       .  S
C67          C68   1.403       .  A
C67          H71   1.080       .  S
C68          C69   1.431       .  A
C68        C1343   1.508       .  S
C69          H72   1.082   1_655  S
C73          C74   1.433   1_455  A
C73          C78   1.398       .  A
C73        C1315   1.500   1_455  S
C74          C75   1.432   1_655  A
C74          H79   1.082       .  S
C75          C76   1.393       .  A
C75        C1298   1.501   1_455  S
C76          C77   1.387       .  A
C76          H80   1.086       .  S
C77          C78   1.389       .  A
C77        C1483   1.464       .  S
C78          H81   1.086       .  S
C82          C83   1.402       .  A
C82          C87   1.431       .  A
C82        C1270   1.503       .  S
C83          C84   1.396       .  A
C83          H88   1.085       .  S
C84          C85   1.384       .  A
C84        C1469   1.458       .  S
C85          C86   1.393       .  A
C85          H89   1.088       .  S
C86          C87   1.429       .  A
C86        C1284   1.495       .  S
C87          H90   1.082       .  S
O91        Zr127   2.411   1_545  S
O91         C102   1.286       .  A
O92        Zr126   2.453   1_545  S
O92         C103   1.294       .  A
O93         Zr99   2.380       .  S
O93         C104   1.283       .  A
O94         Zr99   2.418   1_455  S
O94         C105   1.288       .  A
O95        Zr129   2.402   1_545  S
O95         C105   1.286       .  A
O96        Zr128   2.449   1_545  S
O96         C104   1.293       .  A
O97         Zr99   2.490       .  S
O97         C103   1.302       .  A
O98         Zr99   2.485       .  S
O98         C102   1.301       .  A
Zr99        O100   2.330   1_655  S
Zr99        O101   2.345       .  S
Zr99        O109   2.340   1_655  S
Zr99        O107   2.350       .  S
O100       Zr126   2.336   1_445  S
O100       Zr129   2.331   1_545  S
O101       Zr127   2.335   1_545  S
O101       Zr128   2.342   1_545  S
C102       C1525   1.485       .  S
C103       C1312   1.508       .  S
C104       C1242   1.451       .  S
C105       C1256   1.449       .  S
H106        O107   0.966       .  S
O107       Zr126   2.353   1_545  S
O107       Zr128   2.365   1_545  S
H108        O109   0.965       .  S
O109       Zr127   2.342   1_445  S
O109       Zr129   2.327   1_545  S
O110       Zr126   2.420       .  S
O110        C133   1.288       .  A
O111       Zr127   2.437       .  S
O111        C134   1.291       .  A
O112       Zr128   2.489       .  S
O112        C135   1.303       .  A
O113       Zr129   2.467       .  S
O113        C136   1.298       .  A
O114       Zr129   2.477       .  S
O114        C137   1.299       .  A
O115       Zr128   2.500       .  S
O115        C138   1.304       .  A
O116       Zr130   2.409       .  S
O116        C139   1.287       .  A
O117       Zr130   2.451   1_455  S
O117        C140   1.295       .  A
O118       Zr128   2.445       .  S
O118        C139   1.296       .  A
O119       Zr129   2.367       .  S
O119        C140   1.279       .  A
O120       Zr126   2.439       .  S
O120        C135   1.293       .  A
O121       Zr127   2.428       .  S
O121        C138   1.289       .  A
O122       Zr127   2.408   1_455  S
O122        C137   1.285       .  A
O123       Zr126   2.461   1_455  S
O123        C136   1.296       .  A
O124       Zr130   2.512       .  S
O124        C133   1.307       .  A
O125       Zr130   2.493   1_455  S
O125        C134   1.303   1_455  A
Zr126       O132   2.357       .  S
Zr126       O144   2.349   1_655  S
Zr127       O131   2.332   1_655  S
Zr127       O142   2.308       .  S
Zr128       O132   2.365       .  S
Zr128       O142   2.339       .  S
Zr129       O131   2.334       .  S
Zr129       O144   2.346       .  S
Zr130       O131   2.341   1_655  S
Zr130       O132   2.360       .  S
Zr130       O144   2.341   1_655  S
Zr130       O142   2.352       .  S
C133       C1340   1.517       .  S
C134       C1287   1.496       .  S
C135       C1158   1.513       .  S
C136       C1172   1.501       .  S
C137       C1189   1.480       .  S
C138       C1200   1.508       .  S
C139       C1231   1.474       .  S
C140       C1214   1.466       .  S
H141        O142   0.960       .  S
H143        O144   0.964       .  S
C145        C146   1.395       .  A
C145        C150   1.425       .  A
C145       C1382   1.485       .  S
C146        C147   1.384       .  A
C146        H151   1.086       .  S
C147        C148   1.387       .  A
C147       C1259   1.461       .  S
C148        C149   1.401       .  A
C148        H152   1.085       .  S
C149        C150   1.426       .  A
C149       C1144   1.500       .  S
C150        H153   1.082       .  S
C154        C155   1.424       .  A
C154        C159   1.401       .  A
C154       C1371   1.492       .  S
C155        C156   1.422       .  A
C155        H160   1.083       .  S
C156        C157   1.395       .  A
C156       C1130   1.487       .  S
C157        C158   1.384       .  A
C157        H161   1.087       .  S
C158        C159   1.394       .  A
C158       C1245   1.459       .  S
C159        H162   1.085       .  S
C163        C164   1.401       .  A
C163        C168   1.425       .  A
C163       C1116   1.505       .  S
C164        C165   1.405       .  A
C164        H169   1.078       .  S
C165        C166   1.400       .  A
C165       C1228   1.505       .  S
C166        C167   1.400       .  A
C166        H170   1.084       .  S
C167        C168   1.425       .  A
C167       C1399   1.498       .  S
C168        H171   1.082       .  S
C172        C173   1.393       .  A
C172        C177   1.427       .  A
C172       C1357   1.499       .  S
C173        C174   1.391       .  A
C173        H178   1.081       .  S
C174        C175   1.402       .  A
C174       C1217   1.484       .  S
C175        C176   1.403       .  A
C175        H179   1.085       .  S
C176        C177   1.429       .  A
C176       C1102   1.506       .  S
C177        H180   1.082       .  S
C181        C182   1.391       .  A
C181        C186   1.430   1_545  A
C181       C1203   1.499   1_545  S
C182        C183   1.389       .  A
C182        H187   1.086       .  S
C183        C184   1.396       .  A
C183       C1088   1.476       .  S
C184        C185   1.403       .  A
C184        H188   1.085       .  S
C185        C186   1.433   1_545  A
C185       C1074   1.508   1_545  S
C186        H189   1.082       .  S
O190       Zr226   2.417       .  S
O190        C201   1.286       .  A
O191       Zr225   2.481       .  S
O191        C202   1.299       .  A
O192       Zr198   2.420       .  S
O192        C203   1.288       .  A
O193       Zr198   2.389       .  S
O193        C204   1.284       .  A
O194       Zr228   2.440       .  S
O194        C204   1.292       .  A
O195       Zr227   2.395       .  S
O195        C203   1.284       .  A
O196       Zr198   2.479   1_565  S
O196        C202   1.301       .  A
O197       Zr198   2.482       .  S
O197        C201   1.301       .  A
Zr198       O199   2.338   1_545  S
Zr198       O200   2.330       .  S
Zr198       O208   2.349       .  S
Zr198       O206   2.341   1_545  S
O199       Zr225   2.334       .  S
O199       Zr228   2.346   1_565  S
O200       Zr226   2.335       .  S
O200       Zr227   2.339       .  S
C201       C1147   1.490       .  S
C202       C1105   1.520       .  S
C203       C1032   1.440       .  S
C204       C1060   1.449   1_545  S
H205        O206   0.967       .  S
O206       Zr225   2.336       .  S
O206       Zr227   2.332   1_565  S
H207        O208   0.966       .  S
O208       Zr226   2.342       .  S
O208       Zr228   2.358       .  S
O209       Zr225   2.435       .  S
O209        C232   1.291       .  A
O210       Zr226   2.419       .  S
O210        C233   1.287       .  A
O211       Zr227   2.487   1_565  S
O211        C234   1.301       .  A
O212       Zr228   2.497   1_565  S
O212        C235   1.305       .  A
O213       Zr228   2.488       .  S
O213        C236   1.302       .  A
O214       Zr227   2.471       .  S
O214        C237   1.298       .  A
O215       Zr229   2.452       .  S
O215        C238   1.294       .  A
O216       Zr229   2.411       .  S
O216        C239   1.287       .  A
O217       Zr227   2.372       .  S
O217        C238   1.282       .  A
O218       Zr228   2.449       .  S
O218        C239   1.296       .  A
O219       Zr225   2.453       .  S
O219        C234   1.295       .  A
O220       Zr226   2.427       .  S
O220        C237   1.288       .  A
O221       Zr226   2.428       .  S
O221        C236   1.289       .  A
O222       Zr225   2.418       .  S
O222        C235   1.288       .  A
O223       Zr229   2.498   1_565  S
O223        C232   1.304       .  A
O224       Zr229   2.491       .  S
O224        C233   1.302       .  A
Zr225       O231   2.348       .  S
Zr225       O243   2.370       .  S
Zr226       O230   2.329       .  S
Zr226       O241   2.334       .  S
Zr227       O231   2.340   1_545  S
Zr227       O241   2.337       .  S
Zr228       O230   2.336       .  S
Zr228       O243   2.359   1_545  S
Zr229       O230   2.342       .  S
Zr229       O231   2.355   1_545  S
Zr229       O243   2.367   1_545  S
Zr229       O241   2.338       .  S
C232       C1119   1.513       .  S
C233       C1133   1.486       .  S
C234        C990   1.512       .  S
C235       C1018   1.511       .  S
C236       C1004   1.500       .  S
C237        C979   1.482       .  S
C238       C1091   1.464       .  S
C239       C1046   1.481       .  S
H240        O241   0.966       .  S
H242        O243   0.965       .  S
C244        C245   1.392       .  A
C244        C249   1.424       .  A
C244        C962   1.484       .  S
C245        C246   1.379       .  A
C245        H250   1.087       .  S
C246        C247   1.393       .  A
C246       C1063   1.463       .  S
C247        C248   1.407       .  A
C247        H251   1.085       .  S
C248        C249   1.427       .  A
C248       C1175   1.502       .  S
C249        H252   1.082       .  S
C253        C254   1.421       .  A
C253        C258   1.399   1_565  A
C253       C1161   1.495       .  S
C254        C255   1.421       .  A
C254        H259   1.082       .  S
C255        C256   1.401   1_565  A
C255        C948   1.500       .  S
C256        C257   1.407       .  A
C256        H260   1.080       .  S
C257        C258   1.403       .  A
C257       C1049   1.507       .  S
C258        H261   1.082       .  S
C262        C263   1.421       .  A
C262        C267   1.394       .  A
C262        C937   1.480       .  S
C263        C264   1.423       .  A
C263        H268   1.083   1_565  S
C264        C265   1.398       .  A
C264       C1186   1.488   1_565  S
C265        C266   1.384       .  A
C265        H269   1.086       .  S
C266        C267   1.381       .  A
C266       C1035   1.448       .  S
C267        H270   1.086       .  S
O271       Zr307   2.461   1_554  S
O271        C282   1.296       .  A
O272       Zr306   2.404   1_554  S
O272        C283   1.284       .  A
O273       Zr279   2.410   1_545  S
O273        C284   1.288       .  A
O274       Zr279   2.390       .  S
O274        C285   1.285       .  A
O275       Zr309   2.445   1_554  S
O275        C285   1.293       .  A
O276       Zr308   2.418   1_554  S
O276        C284   1.288       .  A
O277       Zr279   2.481       .  S
O277        C283   1.300       .  A
O278       Zr279   2.492       .  S
O278        C282   1.302       .  A
Zr279       O280   2.342       .  S
Zr279       O281   2.334   1_565  S
Zr279       O289   2.344       .  S
Zr279       O287   2.336   1_565  S
O280       Zr306   2.336   1_554  S
O280       Zr309   2.346   1_554  S
O281       Zr307   2.341   1_544  S
O281       Zr308   2.335   1_554  S
C282       C1077   1.507       .  S
C283        C934   1.473       .  S
C284        C920   1.454       .  S
C285        C906   1.460       .  S
H286        O287   0.964       .  S
O287       Zr306   2.331   1_544  S
O287       Zr308   2.329   1_554  S
H288        O289   0.967       .  S
O289       Zr307   2.351   1_554  S
O289       Zr309   2.360   1_554  S
O290       Zr306   2.419       .  S
O290        C313   1.286       .  A
O291       Zr307   2.452       .  S
O291        C314   1.294       .  A
O292       Zr308   2.467       .  S
O292        C315   1.297       .  A
O293       Zr309   2.499       .  S
O293        C316   1.305       .  A
O294       Zr309   2.516       .  S
O294        C317   1.308       .  A
O295       Zr308   2.470       .  S
O295        C318   1.299       .  A
O296       Zr310   2.444   1_545  S
O296        C319   1.292       .  A
O297       Zr310   2.397       .  S
O297        C320   1.284       .  A
O298       Zr308   2.375       .  S
O298        C319   1.281       .  A
O299       Zr309   2.459       .  S
O299        C320   1.299       .  A
O300       Zr306   2.426   1_545  S
O300        C315   1.288       .  A
O301       Zr307   2.443   1_545  S
O301        C318   1.292       .  A
O302       Zr307   2.428       .  S
O302        C317   1.291       .  A
O303       Zr306   2.428       .  S
O303        C316   1.289       .  A
O304       Zr310   2.481       .  S
O304        C313   1.300       .  A
O305       Zr310   2.492       .  S
O305        C314   1.303       .  A
Zr306       O312   2.333   1_565  S
Zr306       O324   2.323       .  S
Zr307       O311   2.352       .  S
Zr307       O322   2.350   1_565  S
Zr308       O312   2.335       .  S
Zr308       O322   2.354       .  S
Zr309       O311   2.359       .  S
Zr309       O324   2.349       .  S
Zr310       O311   2.356       .  S
Zr310       O312   2.339   1_565  S
Zr310       O324   2.352       .  S
Zr310       O322   2.347   1_565  S
C313        C965   1.479       .  S
C314        C951   1.518       .  S
C315        C864   1.479       .  S
C316        C836   1.505       .  S
C317        C850   1.513       .  S
C318        C822   1.507       .  S
C319        C878   1.448       .  S
C320        C892   1.481       .  S
H321        O322   0.968       .  S
H323        O324   0.967       .  S
C325        C326   1.425       .  A
C325        C330   1.397       .  A
C325        C808   1.493       .  S
C326        C327   1.424       .  A
C326        H331   1.082       .  S
C327        C328   1.395       .  A
C327        C976   1.487       .  S
C328        C329   1.388       .  A
C328        H332   1.086       .  S
C329        C330   1.389       .  A
C329        C923   1.461       .  S
C330        H333   1.085       .  S
C334        C335   1.427       .  A
C334        C339   1.396       .  A
C334        C794   1.496       .  S
C335        C336   1.429       .  A
C335        H340   1.082       .  S
C336        C337   1.402       .  A
C336        C993   1.504       .  S
C337        C338   1.398       .  A
C337        H341   1.085       .  S
C338        C339   1.387       .  A
C338        C909   1.472       .  S
C339        H342   1.086       .  S
C343        C344   1.399       .  A
C343        C348   1.417       .  A
C343       C1021   1.490       .  S
C344        C345   1.406       .  A
C344        H349   1.082       .  S
C345        C346   1.400       .  A
C345        C895   1.507       .  S
C346        C347   1.398       .  A
C346        H350   1.078       .  S
C347        C348   1.419       .  A
C347        C780   1.490       .  S
C348        H351   1.082       .  S
C352        C353   1.420       .  A
C352        C357   1.396       .  A
C352       C1007   1.486       .  S
C353        C354   1.421       .  A
C353        H358   1.083       .  S
C354        C355   1.402       .  A
C354        C766   1.491       .  S
C355        C356   1.396       .  A
C355        H359   1.085       .  S
C356        C357   1.388       .  A
C356        C881   1.464       .  S
C357        H360   1.086       .  S
O361       Zr397   2.422   1_554  S
O361        C372   1.287       .  A
O362       Zr396   2.441   1_554  S
O362        C373   1.291       .  A
O363       Zr369   2.437   1_455  S
O363        C374   1.292       .  A
O364       Zr369   2.407       .  S
O364        C375   1.289       .  A
O365       Zr399   2.434   1_554  S
O365        C375   1.291       .  A
O366       Zr398   2.418   1_554  S
O366        C374   1.289       .  A
O367       Zr369   2.504       .  S
O367        C373   1.305       .  A
O368       Zr369   2.480       .  S
O368        C372   1.300       .  A
Zr369       O370   2.349       .  S
Zr369       O371   2.343   1_655  S
Zr369       O379   2.348       .  S
Zr369       O377   2.335   1_655  S
O370       Zr396   2.348   1_554  S
O370       Zr399   2.356   1_554  S
O371       Zr397   2.340   1_454  S
O371       Zr398   2.333   1_554  S
C372       C1511   1.482       .  S
C373       C1273   1.501       .  S
C374        C741   1.471       .  S
C375        C752   1.464       .  S
H376        O377   0.966       .  S
O377       Zr396   2.344   1_454  S
O377       Zr398   2.336   1_554  S
H378        O379   0.967       .  S
O379       Zr397   2.325   1_554  S
O379       Zr399   2.345   1_554  S
O380       Zr396   2.437       .  S
O380        C403   1.292       .  A
O381       Zr397   2.428       .  S
O381        C404   1.288       .  A
O382       Zr398   2.475       .  S
O382        C405   1.300       .  A
O383       Zr399   2.506       .  S
O383        C406   1.306       .  A
O384       Zr399   2.493       .  S
O384        C407   1.302       .  A
O385       Zr398   2.471       .  S
O385        C408   1.298       .  A
O386       Zr400   2.442   1_455  S
O386        C409   1.293       .  A
O387       Zr400   2.409       .  S
O387        C410   1.287       .  A
O388       Zr398   2.383       .  S
O388        C409   1.284       .  A
O389       Zr399   2.435       .  S
O389        C410   1.292       .  A
O390       Zr396   2.460   1_455  S
O390        C405   1.295       .  A
O391       Zr397   2.417   1_455  S
O391        C408   1.286       .  A
O392       Zr397   2.417       .  S
O392        C407   1.287       .  A
O393       Zr396   2.437       .  S
O393        C406   1.292       .  A
O394       Zr400   2.514       .  S
O394        C403   1.307       .  A
O395       Zr400   2.512       .  S
O395        C404   1.306       .  A
Zr396       O402   2.347   1_655  S
Zr396       O414   2.365       .  S
Zr397       O401   2.328       .  S
Zr397       O412   2.328   1_655  S
Zr398       O402   2.348       .  S
Zr398       O412   2.345       .  S
Zr399       O401   2.338       .  S
Zr399       O414   2.365       .  S
Zr400       O401   2.340       .  S
Zr400       O402   2.352   1_655  S
Zr400       O414   2.369       .  S
Zr400       O412   2.345   1_655  S
C403       C1329   1.511       .  S
C404       C1301   1.507       .  S
C405        C682   1.500       .  S
C406        C654   1.520       .  S
C407        C668   1.493       .  S
C408        C699   1.481       .  S
C409        C724   1.458       .  S
C410        C710   1.471       .  S
H411        O412   0.966       .  S
H413        O414   0.969       .  S
C415        C416   1.394       .  A
C415        C420   1.418       .  A
C415        C643   1.483       .  S
C416        C417   1.387       .  A
C416        H421   1.086       .  S
C417        C418   1.408       .  A
C417        C755   1.484       .  S
C418        C419   1.406       .  A
C418        H422   1.081       .  S
C419        C420   1.420       .  A
C419       C1424   1.500       .  S
C420        H423   1.082       .  S
C424        C425   1.417       .  A
C424        C429   1.404       .  A
C424        C629   1.490       .  S
C425        C426   1.416       .  A
C425        H430   1.083       .  S
C426        C427   1.397       .  A
C426       C1413   1.485       .  S
C427        C428   1.395       .  A
C427        H431   1.085       .  S
C428        C429   1.399       .  A
C428        C738   1.482       .  S
C429        H432   1.084       .  S
C433        C434   1.393       .  A
C433        C438   1.424       .  A
C433       C1438   1.491       .  S
C434        C435   1.390       .  A
C434        H439   1.085       .  S
C435        C436   1.392       .  A
C435        C727   1.475       .  S
C436        C437   1.400       .  A
C436        H440   1.085       .  S
C437        C438   1.427       .  A
C437        C612   1.494       .  S
C438        H441   1.082       .  S
C442        C443   1.430       .  A
C442        C447   1.408       .  A
C442       C1452   1.506       .  S
C443        C444   1.425       .  A
C443        H448   1.082       .  S
C444        C445   1.399       .  A
C444        C598   1.496       .  S
C445        C446   1.395       .  A
C445        H449   1.082       .  S
C446        C447   1.394       .  A
C446        C713   1.489       .  S
C447        H450   1.085       .  S
C451        C452   1.400       .  A
C451        C456   1.416       .  A
C451        C696   1.483   1_554  S
C452        C453   1.390       .  A
C452        H457   1.085       .  S
C453        C454   1.391       .  A
C453        C584   1.464       .  S
C454        C455   1.397       .  A
C454        H458   1.086       .  S
C455        C456   1.415       .  A
C455        C867   1.480   1_554  S
C456        H459   1.083   1_554  S
O460       Zr496   2.458       .  S
O460        C471   1.295       .  A
O461       Zr495   2.437       .  S
O461        C472   1.292       .  A
O462       Zr468   2.428       .  S
O462        C473   1.291       .  A
O463       Zr468   2.403       .  S
O463        C474   1.286       .  A
O464       Zr498   2.433       .  S
O464        C474   1.290       .  A
O465       Zr497   2.403       .  S
O465        C473   1.286       .  A
O466       Zr468   2.464   1_556  S
O466        C472   1.296       .  A
O467       Zr468   2.468       .  S
O467        C471   1.298       .  A
Zr468       O469   2.345   1_554  S
Zr468       O470   2.334       .  S
Zr468       O478   2.341       .  S
Zr468       O476   2.343   1_554  S
O469       Zr495   2.347       .  S
O469       Zr498   2.359   1_556  S
O470       Zr496   2.326       .  S
O470       Zr497   2.342       .  S
C471        C811   1.498       .  S
C472        C769   1.502       .  S
C473        C587   1.451       .  S
C474        C542   1.447       .  S
H475        O476   0.967       .  S
O476       Zr495   2.332       .  S
O476       Zr497   2.339   1_556  S
H477        O478   0.968       .  S
O478       Zr496   2.332       .  S
O478       Zr498   2.354       .  S
O479       Zr495   2.444       .  S
O479        C502   1.294       .  A
O480       Zr496   2.421       .  S
O480        C503   1.289       .  A
O481       Zr497   2.492   1_556  S
O481        C504   1.302       .  A
O482       Zr498   2.508   1_556  S
O482        C505   1.306       .  A
O483       Zr498   2.506       .  S
O483        C506   1.306       .  A
O484       Zr497   2.468       .  S
O484        C507   1.298       .  A
O485       Zr499   2.443       .  S
O485        C508   1.293       .  A
O486       Zr499   2.410   1_556  S
O486        C509   1.289       .  A
O487       Zr497   2.386       .  S
O487        C508   1.284       .  A
O488       Zr498   2.430   1_556  S
O488        C509   1.292       .  A
O489       Zr495   2.428       .  S
O489        C504   1.289       .  A
O490       Zr496   2.445       .  S
O490        C507   1.293       .  A
O491       Zr496   2.395       .  S
O491        C506   1.283       .  A
O492       Zr495   2.422       .  S
O492        C505   1.287       .  A
O493       Zr499   2.489   1_556  S
O493        C502   1.303       .  A
O494       Zr499   2.500       .  S
O494        C503   1.304       .  A
Zr495       O501   2.347       .  S
Zr495       O513   2.312       .  S
Zr496       O500   2.357       .  S
Zr496       O511   2.327       .  S
Zr497       O501   2.336   1_554  S
Zr497       O511   2.345       .  S
Zr498       O500   2.355       .  S
Zr498       O513   2.344   1_554  S
Zr499       O500   2.349       .  S
Zr499       O501   2.356   1_554  S
Zr499       O513   2.345   1_554  S
Zr499       O511   2.336       .  S
C502        C783   1.512       .  S
C503        C797   1.508       .  S
C504        C615   1.493       .  S
C505        C601   1.517       .  S
C506        C640   1.501       .  S
C507        C626   1.493       .  S
C508        C556   1.452       .  S
C509        C570   1.473       .  S
H510        O511   0.967       .  S
H512        O513   0.968       .  S
C514        C515   1.433       .  A
C514        C519   1.411       .  A
C514        C853   1.505       .  S
C515        C516   1.431       .  A
C515        H520   1.082   1_556  S
C516        C517   1.403       .  A
C516        C657   1.502       .  S
C517        C518   1.398       .  A
C517        H521   1.081       .  S
C518        C519   1.401       .  A
C518        C573   1.508       .  S
C519        H522   1.085       .  S
C523        C524   1.428       .  A
C523        C528   1.394       .  A
C523        C839   1.496       .  S
C524        C525   1.430       .  A
C524        H529   1.082   1_554  S
C525        C526   1.402       .  A
C525        C685   1.501       .  S
C526        C527   1.395       .  A
C526        H530   1.085       .  S
C527        C528   1.387       .  A
C527        C559   1.468       .  S
C528        H531   1.087       .  S
C532        C533   1.423       .  A
C532        C537   1.405   1_556  A
C532        C825   1.496       .  S
C533        C534   1.421   1_556  A
C533        H538   1.083       .  S
C534        C535   1.397       .  A
C534        C671   1.485   1_554  S
C535        C536   1.385       .  A
C535        H539   1.087       .  S
C536        C537   1.395       .  A
C536        C545   1.463       .  S
C537        H540   1.084       .  S
C541        C542   1.404       .  A
C541        C546   1.398       .  A
C541        H548   1.084       .  S
C542        C543   1.400   1_554  A
C543        C544   1.388       .  A
C543        N550   1.437       .  S
C544        C545   1.405   1_556  A
C544        H549   1.083       .  S
C545        C546   1.408       .  A
C546        N547   1.432       .  S
N547        H551   1.045       .  S
N547        H552   1.045       .  S
N550        H553   1.046       .  S
N550        H554   1.046       .  S
C555        C556   1.394   1_556  A
C555        C560   1.387   1_556  A
C555        H562   1.085       .  S
C556        C557   1.410       .  A
C557        C558   1.405       .  A
C557        N564   1.438       .  S
C558        C559   1.404       .  A
C558        H563   1.084       .  S
C559        C560   1.413       .  A
C560        N561   1.432   1_554  S
N561        H565   1.046       .  S
N561        H566   1.046       .  S
N564        H567   1.046       .  S
N564        H568   1.046       .  S
C569        C570   1.408       .  A
C569        C574   1.399       .  A
C569        H576   1.083       .  S
C570        C571   1.410       .  A
C571        C572   1.397       .  A
C571        N578   1.439       .  S
C572        C573   1.413       .  A
C572        H577   1.081       .  S
C573        C574   1.412       .  A
C574        N575   1.433       .  S
N575        H579   1.046       .  S
N575        H580   1.045       .  S
N578        H581   1.044       .  S
N578        H582   1.045   1_556  S
C583        C584   1.401       .  A
C583        C588   1.399       .  A
C583        H590   1.084       .  S
C584        C585   1.410   1_554  A
C585        C586   1.391       .  A
C585        N592   1.433       .  S
C586        C587   1.395   1_556  A
C586        H591   1.085       .  S
C587        C588   1.408       .  A
C588        N589   1.434       .  S
N589        H593   1.046       .  S
N589        H594   1.046       .  S
N592        H595   1.045       .  S
N592        H596   1.046       .  S
C597        C598   1.395       .  A
C597        C602   1.408       .  A
C597        H604   1.084       .  S
C598        C599   1.422       .  A
C599        C600   1.412       .  A
C599        N606   1.433       .  S
C600        C601   1.409       .  A
C600        H605   1.083       .  S
C601        C602   1.429       .  A
C602        N603   1.433       .  S
N603        H607   1.046       .  S
N603        H608   1.046       .  S
N606        H609   1.045       .  S
N606        H610   1.043       .  S
C611        C612   1.405       .  A
C611        C616   1.412       .  A
C611        H618   1.084       .  S
C612        C613   1.413       .  A
C613        C614   1.414       .  A
C613        N620   1.431       .  S
C614        C615   1.404       .  A
C614        H619   1.084       .  S
C615        C616   1.414       .  A
C616        N617   1.437       .  S
N617        H621   1.046       .  S
N617        H622   1.046       .  S
N620        H623   1.045       .  S
N620        H624   1.045       .  S
C625        C626   1.404       .  A
C625        C630   1.410       .  A
C625        H632   1.084       .  S
C626        C627   1.416       .  A
C627        C628   1.412       .  A
C627        N634   1.434       .  S
C628        C629   1.402       .  A
C628        H633   1.084       .  S
C629        C630   1.413       .  A
C630        N631   1.437       .  S
N631        H635   1.046       .  S
N631        H636   1.046       .  S
N634        H637   1.045       .  S
N634        H638   1.046       .  S
C639        C640   1.404       .  A
C639        C644   1.408       .  A
C639        H646   1.083       .  S
C640        C641   1.426       .  A
C641        C642   1.404       .  A
C641        N648   1.434       .  S
C642        C643   1.398       .  A
C642        H647   1.084       .  S
C643        C644   1.420       .  A
C644        N645   1.433       .  S
N645        H649   1.044       .  S
N645        H650   1.045       .  S
N648        H651   1.046       .  S
N648        H652   1.046       .  S
C653        C654   1.419       .  A
C653        C658   1.408       .  A
C653        H660   1.083       .  S
C654        C655   1.416       .  A
C655        C656   1.417       .  A
C655        N662   1.432       .  S
C656        C657   1.412       .  A
C656        H661   1.083       .  S
C657        C658   1.408       .  A
C658        N659   1.432       .  S
N659        H663   1.046   1_556  S
N659        H664   1.045       .  S
N662        H665   1.046       .  S
N662        H666   1.046   1_556  S
C667        C668   1.403       .  A
C667        C672   1.410       .  A
C667        H674   1.079       .  S
C668        C669   1.416   1_556  A
C669        C670   1.407       .  A
C669        N676   1.433       .  S
C670        C671   1.404   1_554  A
C670        H675   1.084       .  S
C671        C672   1.412       .  A
C672        N673   1.432       .  S
N673        H677   1.045       .  S
N673        H678   1.046       .  S
N676        H679   1.045       .  S
N676        H680   1.046       .  S
C681        C682   1.409   1_554  A
C681        C686   1.415       .  A
C681        H688   1.084       .  S
C682        C683   1.409       .  A
C683        C684   1.410       .  A
C683        N690   1.432       .  S
C684        C685   1.409   1_556  A
C684        H689   1.081       .  S
C685        C686   1.420       .  A
C686        N687   1.438       .  S
N687        H691   1.045       .  S
N687        H692   1.044       .  S
N690        H693   1.046       .  S
N690        H694   1.045       .  S
C695        C696   1.408       .  A
C695        C700   1.401       .  A
C695        H702   1.084       .  S
C696        C697   1.406   1_556  A
C697        C698   1.409       .  A
C697        N704   1.432       .  S
C698        C699   1.408   1_554  A
C698        H703   1.081       .  S
C699        C700   1.405       .  A
C700        N701   1.433       .  S
N701        H705   1.046       .  S
N701        H706   1.045       .  S
N704        H707   1.045       .  S
N704        H708   1.046       .  S
C709        C710   1.405       .  A
C709        C714   1.401       .  A
C709        H716   1.080       .  S
C710        C711   1.405       .  A
C711        C712   1.390       .  A
C711        N718   1.434       .  S
C712        C713   1.413       .  A
C712        H717   1.081       .  S
C713        C714   1.407       .  A
C714        N715   1.432       .  S
N715        H719   1.046       .  S
N715        H720   1.045       .  S
N718        H721   1.045       .  S
N718        H722   1.046       .  S
C723        C724   1.397       .  A
C723        C728   1.387       .  A
C723        H730   1.085       .  S
C724        C725   1.406       .  A
C725        C726   1.399       .  A
C725        N732   1.433       .  S
C726        C727   1.406       .  A
C726        H731   1.084       .  S
C727        C728   1.415       .  A
C728        N729   1.432       .  S
N729        H733   1.045       .  S
N729        H734   1.046       .  S
N732        H735   1.046       .  S
N732        H736   1.045       .  S
C737        C738   1.408       .  A
C737        C742   1.399       .  A
C737        H744   1.083       .  S
C738        C739   1.416       .  A
C739        C740   1.399       .  A
C739        N746   1.438       .  S
C740        C741   1.405       .  A
C740        H745   1.085       .  S
C741        C742   1.407       .  A
C742        N743   1.438       .  S
N743        H747   1.046       .  S
N743        H748   1.045       .  S
N746        H749   1.043       .  S
N746        H750   1.046       .  S
C751        C752   1.406       .  A
C751        C756   1.393       .  A
C751        H758   1.081       .  S
C752        C753   1.405       .  A
C753        C754   1.392       .  A
C753        N760   1.433       .  S
C754        C755   1.417       .  A
C754        H759   1.081       .  S
C755        C756   1.399       .  A
C756        N757   1.430       .  S
N757        H761   1.043       .  S
N757        H762   1.046       .  S
N760        H763   1.045       .  S
N760        H764   1.045       .  S
C765        C766   1.408       .  A
C765        C770   1.403       .  A
C765        H772   1.084       .  S
C766        C767   1.414       .  A
C767        C768   1.407       .  A
C767        N774   1.438       .  S
C768        C769   1.412       .  A
C768        H773   1.083       .  S
C769        C770   1.419       .  A
C770        N771   1.432       .  S
N771        H775   1.044       .  S
N771        H776   1.043       .  S
N774        H777   1.043       .  S
N774        H778   1.045       .  S
C779        C780   1.404       .  A
C779        C784   1.410       .  A
C779        H786   1.084       .  S
C780        C781   1.409       .  A
C781        C782   1.414       .  A
C781        N788   1.438       .  S
C782        C783   1.415       .  A
C782        H787   1.083       .  S
C783        C784   1.415       .  A
C784        N785   1.428       .  S
N785        H789   1.046       .  S
N785        H790   1.044       .  S
N788        H791   1.045       .  S
N788        H792   1.045       .  S
C793        C794   1.412       .  A
C793        C798   1.410       .  A
C793        H800   1.084       .  S
C794        C795   1.413       .  A
C795        C796   1.408       .  A
C795        N802   1.437       .  S
C796        C797   1.414       .  A
C796        H801   1.084       .  S
C797        C798   1.418       .  A
C798        N799   1.432       .  S
N799        H803   1.044       .  S
N799        H804   1.046       .  S
N802        H805   1.045       .  S
N802        H806   1.046       .  S
C807        C808   1.410       .  A
C807        C812   1.413       .  A
C807        H814   1.084       .  S
C808        C809   1.410       .  A
C809        C810   1.413       .  A
C809        N816   1.438       .  S
C810        C811   1.406       .  A
C810        H815   1.077       .  S
C811        C812   1.412       .  A
C812        N813   1.437       .  S
N813        H817   1.046       .  S
N813        H818   1.045       .  S
N816        H819   1.046       .  S
N816        H820   1.045       .  S
C821        C822   1.407       .  A
C821        C826   1.410       .  A
C821        H828   1.083       .  S
C822        C823   1.425       .  A
C823        C824   1.413       .  A
C823        N830   1.437       .  S
C824        C825   1.399       .  A
C824        H829   1.083       .  S
C825        C826   1.417       .  A
C826        N827   1.438       .  S
N827        H831   1.046       .  S
N827        H832   1.045       .  S
N830        H833   1.046       .  S
N830        H834   1.046       .  S
C835        C836   1.413   1_554  A
C835        C840   1.415       .  A
C835        H842   1.084       .  S
C836        C837   1.411       .  A
C837        C838   1.413       .  A
C837        N844   1.434       .  S
C838        C839   1.410   1_556  A
C838        H843   1.084       .  S
C839        C840   1.407       .  A
C840        N841   1.431       .  S
N841        H845   1.045       .  S
N841        H846   1.046       .  S
N844        H847   1.045       .  S
N844        H848   1.045       .  S
C849        C850   1.410       .  A
C849        C854   1.407       .  A
C849        H856   1.079       .  S
C850        C851   1.416       .  A
C851        C852   1.425       .  A
C851        N858   1.437   1_556  S
C852        C853   1.410       .  A
C852        H857   1.081   1_556  S
C853        C854   1.407       .  A
C854        N855   1.432       .  S
N855        H859   1.045       .  S
N855        H860   1.045       .  S
N858        H861   1.046       .  S
N858        H862   1.045       .  S
C863        C864   1.405   1_554  A
C863        C868   1.406       .  A
C863        H870   1.084       .  S
C864        C865   1.405       .  A
C865        C866   1.405       .  A
C865        N872   1.433       .  S
C866        C867   1.407       .  A
C866        H871   1.084       .  S
C867        C868   1.416   1_556  A
C868        N869   1.438       .  S
N869        H873   1.046       .  S
N869        H874   1.044       .  S
N872        H875   1.046       .  S
N872        H876   1.046       .  S
C877        C878   1.403       .  A
C877        C882   1.405       .  A
C877        H884   1.084       .  S
C878        C879   1.407       .  A
C879        C880   1.379       .  A
C879        N886   1.435       .  S
C880        C881   1.402       .  A
C880        H885   1.085       .  S
C881        C882   1.407       .  A
C882        N883   1.431       .  S
N883        H887   1.046       .  S
N883        H888   1.046       .  S
N886        H889   1.046       .  S
N886        H890   1.043       .  S
C891        C892   1.401       .  A
C891        C896   1.396       .  A
C891        H898   1.082       .  S
C892        C893   1.422       .  A
C893        C894   1.401       .  A
C893        N900   1.434       .  S
C894        C895   1.406       .  A
C894        H899   1.083       .  S
C895        C896   1.414       .  A
C896        N897   1.431       .  S
N897        H901   1.045       .  S
N897        H902   1.046       .  S
N900        H903   1.046       .  S
N900        H904   1.046       .  S
C905        C906   1.404       .  A
C905        C910   1.408       .  A
C905        H912   1.084       .  S
C906        C907   1.407       .  A
C907        C908   1.388       .  A
C907        N914   1.440       .  S
C908        C909   1.403       .  A
C908        H913   1.083       .  S
C909        C910   1.412       .  A
C910        N911   1.437       .  S
N911        H915   1.046       .  S
N911        H916   1.045       .  S
N914        H917   1.046       .  S
N914        H918   1.046       .  S
C919        C920   1.397       .  A
C919        C924   1.391       .  A
C919        H926   1.084       .  S
C920        C921   1.409       .  A
C921        C922   1.397       .  A
C921        N928   1.433       .  S
C922        C923   1.400       .  A
C922        H927   1.084       .  S
C923        C924   1.410       .  A
C924        N925   1.434       .  S
N925        H929   1.046       .  S
N925        H930   1.046       .  S
N928        H931   1.046       .  S
N928        H932   1.046       .  S
C933        C934   1.403       .  A
C933        C938   1.405       .  A
C933        H940   1.084       .  S
C934        C935   1.409   1_565  A
C935        C936   1.400       .  A
C935        N942   1.433       .  S
C936        C937   1.409   1_545  A
C936        H941   1.084       .  S
C937        C938   1.418       .  A
C938        N939   1.438       .  S
N939        H943   1.046       .  S
N939        H944   1.044       .  S
N942        H945   1.046       .  S
N942        H946   1.045       .  S
C947        C948   1.397       .  A
C947        C952   1.411       .  A
C947        H954   1.084       .  S
C948        C949   1.416       .  A
C949        C950   1.416       .  A
C949        N956   1.433       .  S
C950        C951   1.410       .  A
C950        H955   1.083       .  S
C951        C952   1.423       .  A
C952        N953   1.429       .  S
N953        H957   1.046       .  S
N953        H958   1.045       .  S
N956        H959   1.046   1_565  S
N956        H960   1.045       .  S
C961        C962   1.407       .  A
C961        C966   1.410       .  A
C961        H968   1.084       .  S
C962        C963   1.419   1_565  A
C963        C964   1.406       .  A
C963        N970   1.433       .  S
C964        C965   1.402   1_545  A
C964        H969   1.084       .  S
C965        C966   1.410       .  A
C966        N967   1.439       .  S
N967        H971   1.045       .  S
N967        H972   1.045       .  S
N970        H973   1.045       .  S
N970        H974   1.045       .  S
C975        C976   1.408       .  A
C975        C980   1.403       .  A
C975        H982   1.084       .  S
C976        C977   1.413       .  A
C977        C978   1.412       .  A
C977        N984   1.437       .  S
C978        C979   1.405       .  A
C978        H983   1.084       .  S
C979        C980   1.412       .  A
C980        N981   1.433       .  S
N981        H985   1.045       .  S
N981        H986   1.046       .  S
N984        H987   1.045       .  S
N984        H988   1.046       .  S
C989        C990   1.412       .  A
C989        C994   1.414       .  A
C989        H996   1.082       .  S
C990        C991   1.419       .  A
C991        C992   1.410       .  A
C991        N998   1.433       .  S
C992        C993   1.411       .  A
C992        H997   1.084       .  S
C993        C994   1.418       .  A
C994        N995   1.438       .  S
N995        H999   1.045       .  S
N995       H1000   1.044       .  S
N998       H1001   1.046       .  S
N998       H1002   1.044       .  S
C1003      C1004   1.405       .  A
C1003      C1008   1.406       .  A
C1003      H1010   1.082       .  S
C1004      C1005   1.419       .  A
C1005      C1006   1.408       .  A
C1005      N1012   1.433       .  S
C1006      C1007   1.401       .  A
C1006      H1011   1.084       .  S
C1007      C1008   1.419       .  A
C1008      N1009   1.433       .  S
N1009      H1013   1.044       .  S
N1009      H1014   1.045       .  S
N1012      H1015   1.046       .  S
N1012      H1016   1.046       .  S
C1017      C1018   1.408       .  A
C1017      C1022   1.416       .  A
C1017      H1024   1.082       .  S
C1018      C1019   1.427       .  A
C1019      C1020   1.406       .  A
C1019      N1026   1.433       .  S
C1020      C1021   1.396       .  A
C1020      H1025   1.084       .  S
C1021      C1022   1.417       .  A
C1022      N1023   1.439       .  S
N1023      H1027   1.046       .  S
N1023      H1028   1.044       .  S
N1026      H1029   1.046       .  S
N1026      H1030   1.045       .  S
C1031      C1032   1.398   1_565  A
C1031      C1036   1.393       .  A
C1031      H1038   1.084       .  S
C1032      C1033   1.406       .  A
C1033      C1034   1.395       .  A
C1033      N1040   1.439       .  S
C1034      C1035   1.400   1_545  A
C1034      H1039   1.084       .  S
C1035      C1036   1.400       .  A
C1036      N1037   1.432       .  S
N1037      H1041   1.046       .  S
N1037      H1042   1.046       .  S
N1040      H1043   1.046       .  S
N1040      H1044   1.046       .  S
C1045      C1046   1.408       .  A
C1045      C1050   1.400       .  A
C1045      H1052   1.082       .  S
C1046      C1047   1.417       .  A
C1047      C1048   1.401       .  A
C1047      N1054   1.433       .  S
C1048      C1049   1.408       .  A
C1048      H1053   1.082       .  S
C1049      C1050   1.412       .  A
C1050      N1051   1.434       .  S
N1051      H1055   1.045       .  S
N1051      H1056   1.046       .  S
N1054      H1057   1.045       .  S
N1054      H1058   1.046       .  S
C1059      C1060   1.398   1_545  A
C1059      C1064   1.390       .  A
C1059      H1066   1.083       .  S
C1060      C1061   1.408       .  A
C1061      C1062   1.402       .  A
C1061      N1068   1.439       .  S
C1062      C1063   1.403       .  A
C1062      H1067   1.084       .  S
C1063      C1064   1.408   1_565  A
C1064      N1065   1.434       .  S
N1065      H1069   1.046       .  S
N1065      H1070   1.046       .  S
N1068      H1071   1.046       .  S
N1068      H1072   1.046       .  S
C1073      C1074   1.410   1_545  A
C1073      C1078   1.418       .  A
C1073      H1080   1.084       .  S
C1074      C1075   1.419       .  A
C1075      C1076   1.414       .  A
C1075      N1082   1.432       .  S
C1076      C1077   1.407       .  A
C1076      H1081   1.083       .  S
C1077      C1078   1.416   1_565  A
C1078      N1079   1.437       .  S
N1079      H1083   1.046       .  S
N1079      H1084   1.046       .  S
N1082      H1085   1.043       .  S
N1082      H1086   1.045       .  S
C1087      C1088   1.410       .  A
C1087      C1092   1.403       .  A
C1087      H1094   1.084       .  S
C1088      C1089   1.412       .  A
C1089      C1090   1.383       .  A
C1089      N1096   1.433       .  S
C1090      C1091   1.400       .  A
C1090      H1095   1.084   1_545  S
C1091      C1092   1.406       .  A
C1092      N1093   1.432       .  S
N1093      H1097   1.046       .  S
N1093      H1098   1.046       .  S
N1096      H1099   1.046       .  S
N1096      H1100   1.045   1_545  S
C1101      C1102   1.405       .  A
C1101      C1106   1.421       .  A
C1101      H1108   1.083       .  S
C1102      C1103   1.422       .  A
C1103      C1104   1.413       .  A
C1103      N1110   1.438       .  S
C1104      C1105   1.410       .  A
C1104      H1109   1.084       .  S
C1105      C1106   1.422       .  A
C1106      N1107   1.436       .  S
N1107      H1111   1.046       .  S
N1107      H1112   1.045       .  S
N1110      H1113   1.044       .  S
N1110      H1114   1.045       .  S
C1115      C1116   1.398       .  A
C1115      C1120   1.410       .  A
C1115      H1122   1.084       .  S
C1116      C1117   1.423       .  A
C1117      C1118   1.418       .  A
C1117      N1124   1.438       .  S
C1118      C1119   1.407       .  A
C1118      H1123   1.083       .  S
C1119      C1120   1.424       .  A
C1120      N1121   1.432       .  S
N1121      H1125   1.046       .  S
N1121      H1126   1.046       .  S
N1124      H1127   1.045       .  S
N1124      H1128   1.046       .  S
C1129      C1130   1.409       .  A
C1129      C1134   1.414       .  A
C1129      H1136   1.084       .  S
C1130      C1131   1.409       .  A
C1131      C1132   1.407       .  A
C1131      N1138   1.432       .  S
C1132      C1133   1.404       .  A
C1132      H1137   1.084       .  S
C1133      C1134   1.410       .  A
C1134      N1135   1.436       .  S
N1135      H1139   1.046       .  S
N1135      H1140   1.043       .  S
N1138      H1141   1.046       .  S
N1138      H1142   1.045       .  S
C1143      C1144   1.412       .  A
C1143      C1148   1.404       .  A
C1143      H1150   1.084       .  S
C1144      C1145   1.411       .  A
C1145      C1146   1.416       .  A
C1145      N1152   1.437       .  S
C1146      C1147   1.412       .  A
C1146      H1151   1.084       .  S
C1147      C1148   1.406       .  A
C1148      N1149   1.437       .  S
N1149      H1153   1.046       .  S
N1149      H1154   1.045       .  S
N1152      H1155   1.045       .  S
N1152      H1156   1.046       .  S
C1157      C1158   1.415       .  A
C1157      C1162   1.408       .  A
C1157      H1164   1.083       .  S
C1158      C1159   1.415       .  A
C1159      C1160   1.414       .  A
C1159      N1166   1.432       .  S
C1160      C1161   1.409       .  A
C1160      H1165   1.084       .  S
C1161      C1162   1.415       .  A
C1162      N1163   1.438       .  S
N1163      H1167   1.046       .  S
N1163      H1168   1.044       .  S
N1166      H1169   1.045       .  S
N1166      H1170   1.046       .  S
C1171      C1172   1.412       .  A
C1171      C1176   1.421       .  A
C1171      H1178   1.083       .  S
C1172      C1173   1.410   1_565  A
C1173      C1174   1.403   1_545  A
C1173      N1180   1.431       .  S
C1174      C1175   1.407       .  A
C1174      H1179   1.084   1_565  S
C1175      C1176   1.414       .  A
C1176      N1177   1.436       .  S
N1177      H1181   1.046       .  S
N1177      H1182   1.045       .  S
N1180      H1183   1.046       .  S
N1180      H1184   1.045       .  S
C1185      C1186   1.411       .  A
C1185      C1190   1.400       .  A
C1185      H1192   1.084       .  S
C1186      C1187   1.417   1_545  A
C1187      C1188   1.407       .  A
C1187      N1194   1.438       .  S
C1188      C1189   1.407       .  A
C1188      H1193   1.084       .  S
C1189      C1190   1.408   1_565  A
C1190      N1191   1.433       .  S
N1191      H1195   1.045       .  S
N1191      H1196   1.044       .  S
N1194      H1197   1.042       .  S
N1194      H1198   1.046       .  S
C1199      C1200   1.405       .  A
C1199      C1204   1.412       .  A
C1199      H1206   1.082       .  S
C1200      C1201   1.422   1_565  A
C1201      C1202   1.415       .  A
C1201      N1208   1.439       .  S
C1202      C1203   1.404   1_545  A
C1202      H1207   1.084       .  S
C1203      C1204   1.425       .  A
C1204      N1205   1.438       .  S
N1205      H1209   1.045       .  S
N1205      H1210   1.044       .  S
N1208      H1211   1.046       .  S
N1208      H1212   1.046       .  S
C1213      C1214   1.400       .  A
C1213      C1218   1.401       .  A
C1213      H1220   1.084       .  S
C1214      C1215   1.413       .  A
C1215      C1216   1.387       .  A
C1215      N1222   1.435       .  S
C1216      C1217   1.403       .  A
C1216      H1221   1.082       .  S
C1217      C1218   1.416       .  A
C1218      N1219   1.433       .  S
N1219      H1223   1.046       .  S
N1219      H1224   1.046       .  S
N1222      H1225   1.046       .  S
N1222      H1226   1.046       .  S
C1227      C1228   1.410       .  A
C1227      C1232   1.403       .  A
C1227      H1234   1.081       .  S
C1228      C1229   1.411       .  A
C1229      C1230   1.398       .  A
C1229      N1236   1.436       .  S
C1230      C1231   1.408       .  A
C1230      H1235   1.081       .  S
C1231      C1232   1.418       .  A
C1232      N1233   1.439       .  S
N1233      H1237   1.046       .  S
N1233      H1238   1.045       .  S
N1236      H1239   1.046       .  S
N1236      H1240   1.045       .  S
C1241      C1242   1.405       .  A
C1241      C1246   1.403       .  A
C1241      H1248   1.084       .  S
C1242      C1243   1.405       .  A
C1243      C1244   1.390       .  A
C1243      N1250   1.438       .  S
C1244      C1245   1.401       .  A
C1244      H1249   1.085       .  S
C1245      C1246   1.403       .  A
C1246      N1247   1.431       .  S
N1247      H1251   1.046       .  S
N1247      H1252   1.046       .  S
N1250      H1253   1.045       .  S
N1250      H1254   1.046       .  S
C1255      C1256   1.399       .  A
C1255      C1260   1.391       .  A
C1255      H1262   1.082       .  S
C1256      C1257   1.415       .  A
C1257      C1258   1.394       .  A
C1257      N1264   1.440       .  S
C1258      C1259   1.400       .  A
C1258      H1263   1.084       .  S
C1259      C1260   1.405       .  A
C1260      N1261   1.434       .  S
N1261      H1265   1.046       .  S
N1261      H1266   1.046       .  S
N1264      H1267   1.041       .  S
N1264      H1268   1.046       .  S
C1269      C1270   1.409   1_455  A
C1269      C1274   1.418       .  A
C1269      H1276   1.084       .  S
C1270      C1271   1.412       .  A
C1271      C1272   1.416       .  A
C1271      N1278   1.432       .  S
C1272      C1273   1.408       .  A
C1272      H1277   1.084       .  S
C1273      C1274   1.413   1_655  A
C1274      N1275   1.436       .  S
N1275      H1279   1.046       .  S
N1275      H1280   1.046       .  S
N1278      H1281   1.046       .  S
N1278      H1282   1.046       .  S
C1283      C1284   1.413   1_455  A
C1283      C1288   1.415       .  A
C1283      H1290   1.084       .  S
C1284      C1285   1.412       .  A
C1285      C1286   1.413       .  A
C1285      N1292   1.437       .  S
C1286      C1287   1.408       .  A
C1286      H1291   1.084       .  S
C1287      C1288   1.408   1_655  A
C1288      N1289   1.432       .  S
N1289      H1293   1.046       .  S
N1289      H1294   1.046       .  S
N1292      H1295   1.045       .  S
N1292      H1296   1.046       .  S
C1297      C1298   1.412       .  A
C1297      C1302   1.409       .  A
C1297      H1304   1.084       .  S
C1298      C1299   1.419   1_655  A
C1299      C1300   1.415       .  A
C1299      N1306   1.438       .  S
C1300      C1301   1.411   1_455  A
C1300      H1305   1.084       .  S
C1301      C1302   1.415       .  A
C1302      N1303   1.430       .  S
N1303      H1307   1.045       .  S
N1303      H1308   1.045       .  S
N1306      H1309   1.044       .  S
N1306      H1310   1.046       .  S
C1311      C1312   1.412   1_455  A
C1311      C1316   1.413       .  A
C1311      H1318   1.084       .  S
C1312      C1313   1.411       .  A
C1313      C1314   1.412       .  A
C1313      N1320   1.430       .  S
C1314      C1315   1.409       .  A
C1314      H1319   1.084       .  S
C1315      C1316   1.416   1_655  A
C1316      N1317   1.432       .  S
N1317      H1321   1.045       .  S
N1317      H1322   1.045       .  S
N1320      H1323   1.046       .  S
N1320      H1324   1.045       .  S
C1325      C1326   1.406       .  A
C1325      C1330   1.407       .  A
C1325      H1332   1.084       .  S
C1326      C1327   1.414   1_655  A
C1327      C1328   1.424       .  A
C1327      N1334   1.432       .  S
C1328      C1329   1.412   1_455  A
C1328      H1333   1.083       .  S
C1329      C1330   1.417       .  A
C1330      N1331   1.434       .  S
N1331      H1335   1.046       .  S
N1331      H1336   1.046       .  S
N1334      H1337   1.041       .  S
N1334      H1338   1.045       .  S
C1339      C1340   1.405       .  A
C1339      C1344   1.414       .  A
C1339      H1346   1.083       .  S
C1340      C1341   1.428       .  A
C1341      C1342   1.414       .  A
C1341      N1348   1.433   1_655  S
C1342      C1343   1.399       .  A
C1342      H1347   1.084       .  S
C1343      C1344   1.421       .  A
C1344      N1345   1.432       .  S
N1345      H1349   1.045       .  S
N1345      H1350   1.045   1_655  S
N1348      H1351   1.046       .  S
N1348      H1352   1.046   1_455  S
C1353      C1354   1.416       .  A
C1353      C1358   1.410       .  A
C1353      H1360   1.084       .  S
C1354      C1355   1.409       .  A
C1355      C1356   1.413       .  A
C1355      N1362   1.432       .  S
C1356      C1357   1.414       .  A
C1356      H1361   1.084       .  S
C1357      C1358   1.415       .  A
C1358      N1359   1.438       .  S
N1359      H1363   1.046       .  S
N1359      H1364   1.044       .  S
N1362      H1365   1.046       .  S
N1362      H1366   1.045       .  S
C1367      C1368   1.410       .  A
C1367      C1372   1.407       .  A
C1367      H1374   1.084       .  S
C1368      C1369   1.415       .  A
C1369      C1370   1.406       .  A
C1369      N1376   1.431       .  S
C1370      C1371   1.408       .  A
C1370      H1375   1.084       .  S
C1371      C1372   1.412       .  A
C1372      N1373   1.432       .  S
N1373      H1377   1.045       .  S
N1373      H1378   1.046       .  S
N1376      H1379   1.045       .  S
N1376      H1380   1.045       .  S
C1381      C1382   1.409       .  A
C1381      C1386   1.412       .  A
C1381      H1388   1.084       .  S
C1382      C1383   1.409       .  A
C1383      C1384   1.408       .  A
C1383      N1390   1.432       .  S
C1384      C1385   1.403       .  A
C1384      H1389   1.083       .  S
C1385      C1386   1.411       .  A
C1386      N1387   1.437       .  S
N1387      H1391   1.046       .  S
N1387      H1392   1.044       .  S
N1390      H1393   1.045       .  S
N1390      H1394   1.046       .  S
C1395      C1396   1.410       .  A
C1395      C1400   1.410       .  A
C1395      H1402   1.083       .  S
C1396      C1397   1.422       .  A
C1397      C1398   1.411       .  A
C1397      N1404   1.433       .  S
C1398      C1399   1.404       .  A
C1398      H1403   1.084       .  S
C1399      C1400   1.416       .  A
C1400      N1401   1.432       .  S
N1401      H1405   1.045       .  S
N1401      H1406   1.044       .  S
N1404      H1407   1.046       .  S
N1404      H1408   1.046       .  S
C1409      C1410   1.407       .  A
C1409      C1414   1.407       .  A
C1409      H1416   1.082       .  S
C1410      C1411   1.412       .  A
C1411      C1412   1.403       .  A
C1411      N1418   1.433       .  S
C1412      C1413   1.408       .  A
C1412      H1417   1.084       .  S
C1413      C1414   1.415       .  A
C1414      N1415   1.438       .  S
N1415      H1419   1.046       .  S
N1415      H1420   1.044       .  S
N1418      H1421   1.046       .  S
N1418      H1422   1.044       .  S
C1423      C1424   1.409       .  A
C1423      C1428   1.412       .  A
C1423      H1430   1.084       .  S
C1424      C1425   1.413       .  A
C1425      C1426   1.406       .  A
C1425      N1432   1.432       .  S
C1426      C1427   1.414       .  A
C1426      H1431   1.083       .  S
C1427      C1428   1.415       .  A
C1428      N1429   1.432       .  S
N1429      H1433   1.046       .  S
N1429      H1434   1.046       .  S
N1432      H1435   1.045       .  S
N1432      H1436   1.045       .  S
C1437      C1438   1.401       .  A
C1437      C1442   1.409       .  A
C1437      H1444   1.084       .  S
C1438      C1439   1.422       .  A
C1439      C1440   1.408       .  A
C1439      N1446   1.433       .  S
C1440      C1441   1.403       .  A
C1440      H1445   1.084       .  S
C1441      C1442   1.418       .  A
C1442      N1443   1.432       .  S
N1443      H1447   1.045       .  S
N1443      H1448   1.045       .  S
N1446      H1449   1.045       .  S
N1446      H1450   1.045       .  S
C1451      C1452   1.408       .  A
C1451      C1456   1.406       .  A
C1451      H1458   1.084       .  S
C1452      C1453   1.422       .  A
C1453      C1454   1.415       .  A
C1453      N1460   1.432       .  S
C1454      C1455   1.408       .  A
C1454      H1459   1.082       .  S
C1455      C1456   1.413       .  A
C1456      N1457   1.433       .  S
N1457      H1461   1.046       .  S
N1457      H1462   1.046       .  S
N1460      H1463   1.044       .  S
N1460      H1464   1.045       .  S
C1465      C1466   1.405       .  A
C1465      C1470   1.402       .  A
C1465      H1472   1.085       .  S
C1466      C1467   1.399   1_655  A
C1467      C1468   1.392   1_455  A
C1467      N1474   1.438       .  S
C1468      C1469   1.405       .  A
C1468      H1473   1.085   1_655  S
C1469      C1470   1.403       .  A
C1470      N1471   1.437       .  S
N1471      H1475   1.046       .  S
N1471      H1476   1.046       .  S
N1474      H1477   1.046       .  S
N1474      H1478   1.046       .  S
C1479      C1480   1.396       .  A
C1479      C1484   1.387       .  A
C1479      H1486   1.082   1_455  S
C1480      C1481   1.410       .  A
C1481      C1482   1.394       .  A
C1481      N1488   1.433       .  S
C1482      C1483   1.404       .  A
C1482      H1487   1.084       .  S
C1483      C1484   1.410       .  A
C1484      N1485   1.434   1_455  S
N1485      H1489   1.046       .  S
N1485      H1490   1.046       .  S
N1488      H1491   1.045       .  S
N1488      H1492   1.046       .  S
C1493      C1494   1.407       .  A
C1493      C1498   1.396       .  A
C1493      H1500   1.081       .  S
C1494      C1495   1.407       .  A
C1495      C1496   1.398       .  A
C1495      N1502   1.434       .  S
C1496      C1497   1.418       .  A
C1496      H1501   1.082       .  S
C1497      C1498   1.404       .  A
C1498      N1499   1.433       .  S
N1499      H1503   1.046       .  S
N1499      H1504   1.044       .  S
N1502      H1505   1.045       .  S
N1502      H1506   1.042       .  S
C1507      C1508   1.403   1_455  A
C1507      C1512   1.409       .  A
C1507      H1514   1.084       .  S
C1508      C1509   1.408       .  A
C1509      C1510   1.407       .  A
C1509      N1516   1.431       .  S
C1510      C1511   1.402       .  A
C1510      H1515   1.079       .  S
C1511      C1512   1.411   1_655  A
C1512      N1513   1.436       .  S
N1513      H1517   1.046       .  S
N1513      H1518   1.046       .  S
N1516      H1519   1.046       .  S
N1516      H1520   1.044       .  S
C1521      C1522   1.400   1_455  A
C1521      C1526   1.409       .  A
C1521      H1528   1.084       .  S
C1522      C1523   1.412       .  A
C1523      C1524   1.405       .  A
C1523      N1530   1.432       .  S
C1524      C1525   1.401       .  A
C1524      H1529   1.084       .  S
C1525      C1526   1.418   1_655  A
C1526      N1527   1.438       .  S
N1527      H1531   1.045       .  S
N1527      H1532   1.046       .  S
N1530      H1533   1.046       .  S
N1530      H1534   1.046       .  S
C1535      C1536   1.401   1_655  A
C1535      C1540   1.395       .  A
C1535      H1542   1.085       .  S
C1536      C1537   1.407       .  A
C1537      C1538   1.391       .  A
C1537      N1544   1.433       .  S
C1538      C1539   1.401       .  A
C1538      H1543   1.084       .  S
C1539      C1540   1.406   1_455  A
C1540      N1541   1.439       .  S
N1541      H1545   1.046       .  S
N1541      H1546   1.045       .  S
N1544      H1547   1.046       .  S
N1544      H1548   1.044       .  S
