geometry optimzed in LAMMPS
_audit_creation_date              2020-11-30 
_audit_creation_method            'lammps2cif' 
_symmetry_space_group_name_H-M    'P1' 
_symmetry_Int_Tables_number       1 
_symmetry_cell_setting            triclinic 
loop_ 
_symmetry_equiv_pos_as_xyz 
  x,y,z 
_cell_length_a                    28.17969235452958 
_cell_length_b                    31.53909494513838 
_cell_length_c                    51.771104497901646 
_cell_angle_alpha                 90.80043076514237 
_cell_angle_beta                  90.30172444421954 
_cell_angle_gamma                 89.91373022331427 
loop_ 
_atom_site_label 
_atom_site_type_symbol 
_atom_site_fract_x 
_atom_site_fract_y 
_atom_site_fract_z 
_atom_site_charge 
N1          N  0.83734092  0.40981268  0.29814632    -0.07020
N2          N  0.86758973  0.42587914  0.31548872    -0.59140
N3          N  0.85238590  0.32017853  0.26567634    -0.06700
N4          N  0.88163516  0.28738622  0.26585351    -0.61270
N5          N  0.87248611  0.35276050  0.25443724    -0.06300
N6          N  0.91604291  0.34259614  0.24698354    -0.59120
N7          N  0.81401040  0.37827228  0.30852079    -0.05980
N8          N  0.82584530  0.37364278  0.33281930    -0.61620
C9          C  0.85865296  0.40355972  0.33726752     0.95150
C10         C  0.92120172  0.30145127  0.25398289     0.94930
N11         N  0.71247935  0.27868269  0.25153343    -0.07210
N12         N  0.70301468  0.24328975  0.23843174    -0.59720
N13         N  0.71609823  0.33639765  0.30659000    -0.05330
N14         N  0.71138416  0.34801356  0.33103340    -0.60970
N15         N  0.67599287  0.34212994  0.29401378    -0.07240
N16         N  0.64340168  0.35795619  0.30963632    -0.59990
N17         N  0.75342328  0.27535123  0.26349131    -0.04970
N18         N  0.77292239  0.23817635  0.25882527    -0.61060
Mn19       Mn  0.78377589  0.32666160  0.28625826     1.18440
C20         C  0.74147611  0.21858005  0.24304925     0.97230
C21         C  0.66579964  0.36102023  0.33277157     0.97900
N22         N  0.83444620  0.41940553  0.21220399    -0.07260
N23         N  0.86996016  0.42717063  0.19629604    -0.63570
N24         N  0.75475031  0.47952295  0.24215515    -0.06060
N25         N  0.73800882  0.51856386  0.24312303    -0.64240
N26         N  0.79498814  0.47672368  0.25524403    -0.06770
N27         N  0.80665296  0.51453633  0.26480876    -0.63830
N28         N  0.79379999  0.42136440  0.19958647    -0.05660
N29         N  0.80085015  0.42983761  0.17510654    -0.64520
Mn30       Mn  0.83623537  0.41574731  0.25505639     1.10660
C31         C  0.84832235  0.43313984  0.17314194     0.98460
C32         C  0.77012321  0.54001469  0.25755739     0.98530
N33         N  0.63723777  0.40181462  0.25029270    -0.06770
N34         N  0.59324690  0.41188157  0.25687921    -0.62150
N35         N  0.69664379  0.37128691  0.19713800    -0.06090
N36         N  0.69597390  0.36258592  0.17205054    -0.58880
N37         N  0.67770025  0.33990120  0.20993981    -0.07400
N38         N  0.66441276  0.30911527  0.19418857    -0.61710
N39         N  0.65686491  0.43337012  0.23802231    -0.06390
N40         N  0.62706195  0.46544602  0.23609365    -0.58900
Mn41       Mn  0.67424394  0.33986277  0.25175855     1.20190
Mn42       Mn  0.72533507  0.42685690  0.21872295     1.10090
Cl43       Cl  0.75522497  0.37768673  0.25292924    -0.86870
C44         C  0.58748599  0.45194042  0.24803476     0.95460
C45         C  0.67605909  0.32344551  0.17068724     0.95260
N46         N  0.80834863  0.98549533  0.25418585    -0.07020
N47         N  0.81414263  0.02068890  0.24090372    -0.59140
N48         N  0.80812604  0.92555255  0.30701973    -0.06700
N49         N  0.81383047  0.91636165  0.33152991    -0.61270
N50         N  0.84828579  0.92109816  0.29456574    -0.06300
N51         N  0.88222652  0.90823151  0.31036232    -0.59120
N52         N  0.76780392  0.98690539  0.26650041    -0.05980
N53         N  0.74517516  0.02252054  0.26204683    -0.61620
C54         C  0.77412518  0.04328237  0.24597940     0.95150
C55         C  0.86014183  0.90590487  0.33346232     0.94930
N56         N  0.68901263  0.84890988  0.29507314    -0.07210
N57         N  0.65858388  0.83230678  0.31166391    -0.59720
N58         N  0.67154898  0.93950920  0.26693079    -0.05330
N59         N  0.64209118  0.97199610  0.26819225    -0.60970
N60         N  0.65243544  0.90795028  0.25362412    -0.07240
N61         N  0.60944023  0.91853368  0.24557613    -0.59990
N62         N  0.71311777  0.87923645  0.30688580    -0.04970
N63         N  0.70195429  0.88209761  0.33136049    -0.61060
Mn64       Mn  0.74024471  0.93347788  0.28712689     1.18440
C65         C  0.66836128  0.85272667  0.33446165     0.97230
C66         C  0.60358419  0.95876133  0.25468416     0.97900
N67         N  0.88503952  0.86334292  0.24960055    -0.07260
N68         N  0.92388394  0.84926766  0.26120879    -0.63570
N69         N  0.82526470  0.89887750  0.19636599    -0.06060
N70         N  0.82218695  0.91197063  0.17215538    -0.64240
N71         N  0.84539686  0.92838892  0.21082838    -0.06770
N72         N  0.85629043  0.96171216  0.19714148    -0.63830
N73         N  0.86561825  0.83293713  0.23559733    -0.05660
N74         N  0.89024441  0.79765200  0.23747439    -0.64520
Mn75       Mn  0.84888115  0.92529493  0.25249964     1.10660
C76         C  0.92637720  0.80798014  0.25351479     0.98460
C77         C  0.84193170  0.95136768  0.17306629     0.98530
N78         N  0.68963909  0.84479049  0.20846484    -0.06770
N79         N  0.65486608  0.83321868  0.19251464    -0.62150
N80         N  0.77016675  0.78442054  0.23542798    -0.06090
N81         N  0.78806770  0.74578669  0.23488668    -0.58880
N82         N  0.73105975  0.78561513  0.24932280    -0.07400
N83         N  0.72169489  0.74731142  0.25827932    -0.61710
N84         N  0.73011074  0.84533113  0.19583639    -0.06390
N85         N  0.72366650  0.83447479  0.17148091    -0.58900
Mn86       Mn  0.68908328  0.84584277  0.25165135     1.20190
Mn87       Mn  0.79830356  0.84021043  0.21507964     1.10090
Cl88       Cl  0.76890823  0.88596497  0.25155532    -0.86870
C89         C  0.67681360  0.82715417  0.16945668     0.95460
C90         C  0.75781634  0.72271443  0.24915135     0.95260
N91         N  0.16676680  0.18745473  0.26563363    -0.07020
N92         N  0.13766365  0.22034252  0.26519068    -0.59140
N93         N  0.18661656  0.09912219  0.29823872    -0.06700
N94         N  0.16243925  0.08039319  0.31689442    -0.61270
N95         N  0.20955757  0.13188107  0.30804209    -0.06300
N96         N  0.20358809  0.13506039  0.33303387    -0.59120
N97         N  0.14655747  0.15397674  0.25477891    -0.05980
N98         N  0.10297030  0.16352023  0.24706581    -0.61620
C99         C  0.09807711  0.20525110  0.25339458     0.95150
C100        C  0.17480391  0.10278909  0.33864840     0.94930
N101        N  0.26474214  0.02808805  0.24116060    -0.07210
N102        N  0.28191791  0.98920423  0.24230920    -0.59720
N103        N  0.18232840  0.08528033  0.21205079    -0.05330
N104        N  0.14664294  0.07398346  0.19659852    -0.60970
N105        N  0.22245506  0.08372060  0.19913475    -0.07240
N106        N  0.21488929  0.07201922  0.17503780    -0.59990
N107        N  0.22538689  0.03136894  0.25479461    -0.04970
N108        N  0.21481490  0.99432790  0.26502634    -0.61060
Mn109      Mn  0.18359523  0.09149767  0.25505319     1.18440
C110        C  0.25079943  0.96847754  0.25736405     0.97230
C111        C  0.16768919  0.06619078  0.17342706     0.97900
N112        N  0.30519758  0.17654658  0.30543345    -0.07260
N113        N  0.31159298  0.16884662  0.33018530    -0.63570
N114        N  0.30434000  0.23025054  0.25019619    -0.06060
N115        N  0.31171625  0.26453303  0.23633240    -0.64240
N116        N  0.26399074  0.23362356  0.26254356    -0.06770
N117        N  0.24286147  0.26971861  0.25747233    -0.63830
N118        N  0.34462754  0.16958406  0.29259345    -0.05660
N119        N  0.37844411  0.15630634  0.30834744    -0.64520
Mn120      Mn  0.23630920  0.18327062  0.28565697     1.10660
C121        C  0.35748599  0.15681373  0.33183639     0.98460
C122        C  0.27278079  0.28865987  0.24106802     0.98530
N123        N  0.31736863  0.13689041  0.19547423    -0.06770
N124        N  0.31232562  0.14706656  0.17080057    -0.62150
N125        N  0.38105954  0.10819640  0.24855448    -0.06090
N126        N  0.42438311  0.09816615  0.25637953    -0.58880
N127        N  0.36165274  0.07602504  0.23612146    -0.07400
N128        N  0.39110386  0.04351000  0.23518805    -0.61710
N129        N  0.33753974  0.16839310  0.20827970    -0.06390
N130        N  0.34624636  0.20032348  0.19296452    -0.58900
Mn131      Mn  0.29192511  0.08066330  0.21740457     1.20190
Mn132      Mn  0.34376480  0.16974348  0.25016870     1.10090
Cl133      Cl  0.26374802  0.13102505  0.25206154    -0.86870
C134        C  0.33053184  0.18699250  0.16961948     0.95460
C135        C  0.43006151  0.05751213  0.24800060     0.95260
N136        N  0.34412388  0.56817325  0.26142473    -0.07020
N137        N  0.37377378  0.53591222  0.26170437    -0.59140
N138        N  0.32970947  0.65674967  0.29431870    -0.06700
N139        N  0.35863117  0.67481657  0.31165450    -0.61270
N140        N  0.30788258  0.62472227  0.30505136    -0.06300
N141        N  0.31953218  0.62135170  0.32946122    -0.59120
N142        N  0.36285801  0.60065324  0.24938087    -0.05980
N143        N  0.40623609  0.59074066  0.24147487    -0.61620
C144        C  0.41233901  0.54996101  0.24914173     0.95150
C145        C  0.35051730  0.65281650  0.33369906     0.94930
N146        N  0.24164990  0.72481019  0.24044041    -0.07210
N147        N  0.22403118  0.76353134  0.24214567    -0.59720
N148        N  0.32061564  0.67071569  0.20788253    -0.05330
N149        N  0.35212780  0.68935981  0.19279903    -0.60970
N150        N  0.27889466  0.67042951  0.19617165    -0.07240
N151        N  0.28167785  0.68794890  0.17326749    -0.59990
N152        N  0.28265618  0.72265891  0.25282347    -0.04970
N153        N  0.29383508  0.76025982  0.26277460    -0.61060
Mn154      Mn  0.32552277  0.66331511  0.25104342     1.18440
C155        C  0.25659361  0.78536001  0.25623810     0.97230
C156        C  0.32732452  0.69959374  0.17111646     0.97900
N157        N  0.21206267  0.58009559  0.30542737    -0.07260
N158        N  0.20889225  0.59176768  0.32991418    -0.63570
N159        N  0.20671553  0.52180017  0.25046339    -0.06060
N160        N  0.19817304  0.48641517  0.23723062    -0.64240
N161        N  0.24850304  0.51990630  0.26159988    -0.06770
N162        N  0.26955245  0.48364500  0.25625451    -0.63830
N163        N  0.17058683  0.58339039  0.29390686    -0.05660
N164        N  0.13823053  0.59706752  0.31043393    -0.64520
Mn165      Mn  0.27805094  0.57249644  0.28357758     1.10660
C166        C  0.16266794  0.60182494  0.33285992     0.98460
C167        C  0.23798527  0.46309241  0.24099726     0.98530
N168        N  0.18633166  0.61246149  0.19636490    -0.06770
N169        N  0.19131766  0.60023400  0.17186010    -0.62150
N170        N  0.12862370  0.64238347  0.25172166    -0.06090
N171        N  0.08847463  0.65358373  0.26311716    -0.58880
N172        N  0.14676183  0.67462925  0.23947394    -0.07400
N173        N  0.12011514  0.70862162  0.24257650    -0.61710
N174        N  0.16780510  0.58134762  0.20963919    -0.06390
N175        N  0.15998957  0.54791295  0.19477693    -0.58900
Mn176      Mn  0.21266957  0.67067759  0.21749682     1.20190
Mn177      Mn  0.16642728  0.58149382  0.25158551     1.10090
Cl178      Cl  0.24601763  0.62219008  0.25081053    -0.86870
C179        C  0.17463750  0.55967000  0.17124727     0.95460
C180        C  0.08413417  0.69525766  0.25744991     0.95260
N181        N  0.59262669  0.20767606  0.04582356    -0.07020
N182        N  0.62783414  0.22282757  0.06003256    -0.59140
N183        N  0.51330491  0.13824301  0.02199975    -0.06700
N184        N  0.49505407  0.10001635  0.02242734    -0.61270
N185        N  0.55296741  0.13859452  0.00886766    -0.06300
N186        N  0.56282653  0.10007856  0.00005045    -0.59120
N187        N  0.55329463  0.20610238  0.05933790    -0.05980
N188        N  0.56106769  0.21984086  0.08316105    -0.61620
C189        C  0.60775624  0.22946204  0.08331256     0.95150
C190        C  0.52614003  0.07653902  0.00872769     0.94930
N191        N  0.39589535  0.21344579  0.00634758    -0.07210
N192        N  0.35314795  0.20185980  0.99849810    -0.59720
N193        N  0.45426544  0.24921233  0.05934568    -0.05330
N194        N  0.43856716  0.24575259  0.08301614    -0.60970
N195        N  0.42864772  0.27665927  0.04633851    -0.07240
N196        N  0.39306005  0.29022124  0.06107430    -0.59990
N197        N  0.41515640  0.18376298  0.02068572    -0.04970
N198        N  0.38583544  0.15135855  0.02276497    -0.61060
Mn199      Mn  0.48422863  0.19381366  0.04069034     1.18440
C200        C  0.34739374  0.16288225  0.00868975     0.97230
C201        C  0.40067009  0.27135702  0.08417635     0.97900
N202        N  0.58652178  0.19181963  0.96211266    -0.07260
N203        N  0.59996440  0.15949452  0.94757148    -0.63570
N204        N  0.60853709  0.28952116  0.98598524    -0.06060
N205        N  0.63549135  0.32375546  0.98623272    -0.64240
N206        N  0.62840390  0.25926957  0.99941394    -0.06770
N207        N  0.66972122  0.27203968  0.00889741    -0.63830
N208        N  0.56730992  0.22158143  0.94794153    -0.05660
N209        N  0.56728571  0.21001411  0.92330260    -0.64520
Mn210      Mn  0.59174147  0.19831938  0.00406535     1.10660
C211        C  0.58780814  0.17109860  0.92340659     0.98460
C212        C  0.67354245  0.31245704  0.00060438     0.98530
N213        N  0.47205572  0.33492833  0.00021473    -0.06770
N214        N  0.46297302  0.37342080  0.00937071    -0.62150
N215        N  0.47138630  0.27271266  0.94742216    -0.06090
N216        N  0.46397198  0.28144386  0.92295817    -0.58880
N217        N  0.43120193  0.27341974  0.96029317    -0.07400
N218        N  0.39579951  0.28343887  0.94457600    -0.61710
N219        N  0.51152934  0.33521922  0.98665500    -0.06390
N220        N  0.53039341  0.37319706  0.98662570    -0.58900
Mn221      Mn  0.43076775  0.27550024  0.00319425     1.20190
Mn222      Mn  0.54000071  0.28004914  0.96639090     1.10090
Cl223      Cl  0.51143610  0.23694510  0.00352325    -0.86870
C224        C  0.50017281  0.39659860  0.00088646     0.95460
C225        C  0.41681648  0.28779838  0.92125366     0.95260
N226        N  0.58690599  0.70935976  0.04516446    -0.07020
N227        N  0.61984618  0.72662350  0.06022982    -0.59140
N228        N  0.50810606  0.63880331  0.01960933    -0.06700
N229        N  0.48927868  0.60084868  0.01986227    -0.61270
N230        N  0.54922400  0.63851783  0.00791497    -0.06300
N231        N  0.55939255  0.59964643  0.99974355    -0.59120
N232        N  0.54640570  0.70691322  0.05756060    -0.05980
N233        N  0.55083863  0.72277115  0.08114090    -0.61620
C234        C  0.59672601  0.73464586  0.08264831     0.95150
C235        C  0.52124506  0.57677282  0.00730055     0.94930
N236        N  0.39130832  0.71625638  0.00308317    -0.07210
N237        N  0.34914085  0.70497092  0.99408666    -0.59720
N238        N  0.45085890  0.74888273  0.05648246    -0.05330
N239        N  0.44229699  0.74843970  0.08127278    -0.60970
N240        N  0.42643729  0.77842258  0.04476859    -0.07240
N241        N  0.39803381  0.79729883  0.06201957    -0.59990
N242        N  0.41030616  0.68531222  0.01653950    -0.04970
N243        N  0.38142122  0.65233010  0.01677903    -0.61060
Mn244      Mn  0.47885611  0.69414847  0.03762638     1.18440
C245        C  0.34340303  0.66487730  0.00263987     0.97230
C246        C  0.40986050  0.77874999  0.08495936     0.97900
N247        N  0.58403816  0.68954368  0.96121379    -0.07260
N248        N  0.59735330  0.65585127  0.94779138    -0.63570
N249        N  0.60581278  0.78777127  0.98239290    -0.06060
N250        N  0.63342853  0.82115637  0.98004587    -0.64240
N251        N  0.62561843  0.75941288  0.99726222    -0.06770
N252        N  0.66778105  0.77300505  0.00526031    -0.63830
N253        N  0.56386687  0.71770404  0.94616061    -0.05660
N254        N  0.56332460  0.70347560  0.92194577    -0.64520
Mn255      Mn  0.58836715  0.69847759  0.00315079     1.10660
C256        C  0.58439422  0.66471463  0.92332577     0.98460
C257        C  0.67202522  0.81188232  0.99439364     0.98530
N258        N  0.47123040  0.83571895  0.99781306    -0.06770
N259        N  0.46266306  0.87448990  0.00651879    -0.62150
N260        N  0.46850049  0.77394084  0.94453929    -0.06090
N261        N  0.46382487  0.78895347  0.92105450    -0.58880
N262        N  0.42848548  0.77842898  0.95749568    -0.07400
N263        N  0.39661409  0.79762794  0.94267797    -0.61710
N264        N  0.51014664  0.83517494  0.98369864    -0.06390
N265        N  0.52916479  0.87314199  0.98297640    -0.58900
Mn266      Mn  0.42777100  0.77805720  0.00091284     1.20190
Mn267      Mn  0.53724019  0.77832959  0.96357808     1.10090
Cl268      Cl  0.50759985  0.73739280  0.00104307    -0.86870
C269        C  0.49935091  0.89725145  0.99717874     0.95460
C270        C  0.41911917  0.80364345  0.91987009     0.95260
N271        N  0.08140559  0.95840583  0.04503096    -0.07020
N272        N  0.11384819  0.97281929  0.06139399    -0.59140
N273        N  0.00479881  0.89259586  0.01360012    -0.06700
N274        N  0.98505043  0.85534636  0.00950393    -0.61270
N275        N  0.04587713  0.89499763  0.00195876    -0.06300
N276        N  0.05526596  0.85881590  0.98970527    -0.59120
N277        N  0.04046375  0.95452148  0.05676477    -0.05980
N278        N  0.04424314  0.96616132  0.08127994    -0.61620
C279        C  0.09032145  0.97713677  0.08403802     0.95150
C280        C  0.01657008  0.83458614  0.99447884     0.94930
N281        N  0.88816659  0.97042658  0.00039401    -0.07210
N282        N  0.84509412  0.95875876  0.99252891    -0.59720
N283        N  0.94332097  0.99781704  0.05567623    -0.05330
N284        N  0.93206316  0.99577197  0.08011579    -0.60970
N285        N  0.92082097  0.02902149  0.04433749    -0.07240
N286        N  0.89213679  0.04810507  0.06115617    -0.59990
N287        N  0.90839272  0.93897199  0.01286735    -0.04970
N288        N  0.88030292  0.90579159  0.01346601    -0.61060
Mn289      Mn  0.97440457  0.94534381  0.03497720     1.18440
C290        C  0.84096807  0.91799769  0.00072465     0.97230
C291        C  0.90084127  0.02739031  0.08354694     0.97900
N292        N  0.08422736  0.95633859  0.96042956    -0.07260
N293        N  0.10123362  0.92698496  0.94474868    -0.63570
N294        N  0.10420289  0.04878829  0.98964689    -0.06060
N295        N  0.13416510  0.08080141  0.98924703    -0.64240
N296        N  0.12249266  0.01688182  0.00231478    -0.06770
N297        N  0.16553745  0.02661084  0.01084777    -0.63830
N298        N  0.06573403  0.98785441  0.94731541    -0.05660
N299        N  0.06968925  0.98027947  0.92217629    -0.64520
Mn300      Mn  0.08507219  0.95568530  0.00262139     1.10660
C301        C  0.09194648  0.94210771  0.92102354     0.98460
C302        C  0.17220206  0.06682965  0.00265959     0.98530
N303        N  0.96564487  0.09378983  0.00352844    -0.06770
N304        N  0.95495634  0.13047283  0.01478809    -0.62150
N305        N  0.97002973  0.04194138  0.94719501    -0.06090
N306        N  0.96603919  0.05925919  0.92429065    -0.58880
N307        N  0.92840596  0.04057793  0.95871521    -0.07400
N308        N  0.89575256  0.05791247  0.94359917    -0.61710
N309        N  0.00683219  0.09652164  0.99165459    -0.06390
N310        N  0.02511004  0.13463636  0.99491024    -0.58900
Mn311      Mn  0.92408222  0.03400748  0.00152406     1.20190
Mn312      Mn  0.03691921  0.04397566  0.96847194     1.10090
Cl313      Cl  0.00484425  0.99478298  0.00169566    -0.86870
C314        C  0.99266536  0.15547908  0.00939649     0.95460
C315        C  0.91976821  0.06901371  0.92204304     0.95260
N316        N  0.92721935  0.53463717  0.04384425    -0.07020
N317        N  0.89580035  0.51917329  0.06002097    -0.59140
N318        N  0.00395837  0.59852863  0.01202279    -0.06700
N319        N  0.02389674  0.63547759  0.00812677    -0.61270
N320        N  0.96231069  0.59613036  0.00070209    -0.06300
N321        N  0.95289640  0.63212291  0.98874842    -0.59120
N322        N  0.96839100  0.53978632  0.05552878    -0.05980
N323        N  0.96559412  0.52817762  0.07986823    -0.61620
C324        C  0.92011191  0.51559679  0.08250372     0.95150
C325        C  0.99211895  0.65615437  0.99345572     0.94930
N326        N  0.11954841  0.51744763  0.99966267    -0.07210
N327        N  0.16310029  0.52586516  0.99177800    -0.59720
N328        N  0.06520054  0.49663078  0.05536170    -0.05330
N329        N  0.08019880  0.50356642  0.07901155    -0.60970
N330        N  0.08787991  0.46465168  0.04451928    -0.07240
N331        N  0.12090937  0.45064401  0.06078387    -0.59990
N332        N  0.10100711  0.55108883  0.01121811    -0.04970
N333        N  0.13110674  0.58309775  0.01091540    -0.61060
Mn334      Mn  0.03440198  0.54731893  0.03367894     1.18440
C335        C  0.16951242  0.56715358  0.99861052     0.97230
C336        C  0.11449538  0.47481314  0.08248858     0.97900
N337        N  0.92230814  0.53315205  0.95950384    -0.07260
N338        N  0.90499378  0.56210395  0.94406365    -0.63570
N339        N  0.90319013  0.44172418  0.98878657    -0.06060
N340        N  0.87537039  0.40833657  0.98956990    -0.64240
N341        N  0.88421813  0.47400764  0.00121117    -0.06770
N342        N  0.84217924  0.46317837  0.01048855    -0.63830
N343        N  0.94020938  0.50108366  0.94622236    -0.05660
N344        N  0.93501245  0.50787660  0.92112182    -0.64520
Mn345      Mn  0.92230951  0.53553649  0.00154646     1.10660
C346        C  0.91287036  0.54625516  0.92017236     0.98460
C347        C  0.83747333  0.42177130  0.00318115     0.98530
N348        N  0.03952106  0.39685055  0.00391454    -0.06770
N349        N  0.04924593  0.36064497  0.01543380    -0.62150
N350        N  0.03640686  0.44554318  0.94686515    -0.06090
N351        N  0.04038957  0.42641493  0.92420077    -0.58880
N352        N  0.07775898  0.44644093  0.95894439    -0.07400
N353        N  0.11020268  0.42736227  0.94441369    -0.61710
N354        N  0.99884842  0.39390174  0.99126512    -0.06390
N355        N  0.97988434  0.35619412  0.99433357    -0.58900
Mn356      Mn  0.08238666  0.45561716  0.00167315     1.20190
Mn357      Mn  0.96953446  0.44553248  0.96766797     1.10090
Cl358      Cl  0.00243527  0.49599224  0.00094285    -0.86870
C359        C  0.01139067  0.33576141  0.00945090     0.95460
C360        C  0.08637340  0.41522925  0.92270926     0.95260
N361        N  0.82122419  0.14411700  0.79665737    -0.07020
N362        N  0.84661497  0.16530862  0.81429524    -0.59140
N363        N  0.84327779  0.05172941  0.76940758    -0.06700
N364        N  0.87262314  0.01920593  0.77055618    -0.61270
N365        N  0.86231406  0.08274989  0.75622621    -0.06300
N366        N  0.90524593  0.07177993  0.74825552    -0.59120
N367        N  0.79759505  0.11382820  0.80804394    -0.05980
N368        N  0.80415215  0.11496441  0.83307545    -0.61620
C369        C  0.83422360  0.14721714  0.83708767     0.95150
C370        C  0.91114602  0.03185348  0.75727429     0.94930
N371        N  0.70924073  0.00143257  0.75446375    -0.07210
N372        N  0.70465975  0.96429686  0.74247321    -0.59720
N373        N  0.70417594  0.06512951  0.80662676    -0.05330
N374        N  0.69628608  0.07509113  0.83099083    -0.60970
N375        N  0.66475659  0.06742898  0.79309452    -0.07240
N376        N  0.62913616  0.07972863  0.80795888    -0.59990
N377        N  0.74852657  0.00201818  0.76813678    -0.04970
N378        N  0.77132315  0.96588099  0.76603636    -0.61060
Mn379      Mn  0.77348382  0.05757879  0.78837840     1.18440
C380        C  0.74390994  0.94252626  0.74999666     0.97230
C381        C  0.64942976  0.08384832  0.83161753     0.97900
N382        N  0.82539069  0.14342185  0.70993817    -0.07260
N383        N  0.85985982  0.15649544  0.69457911    -0.63570
N384        N  0.74153592  0.20220832  0.73593750    -0.06060
N385        N  0.72170885  0.24011395  0.73637258    -0.64240
N386        N  0.78025668  0.20209030  0.75034636    -0.06770
N387        N  0.78750226  0.24011426  0.76069178    -0.63830
N388        N  0.78537230  0.14098170  0.69670273    -0.05660
N389        N  0.79195982  0.15159087  0.67255044    -0.64520
Mn390      Mn  0.82403074  0.14396597  0.75326342     1.10660
C391        C  0.83835071  0.16103300  0.67118673     0.98460
C392        C  0.75051395  0.26351995  0.75191145     0.98530
N393        N  0.62871639  0.12084049  0.74704527    -0.06770
N394        N  0.58894897  0.13407859  0.75802251    -0.62150
N395        N  0.69209657  0.08519884  0.69525194    -0.06090
N396        N  0.69485275  0.07256049  0.67076485    -0.58880
N397        N  0.67316847  0.05508481  0.70914071    -0.07400
N398        N  0.66282038  0.02166287  0.69468664    -0.61710
N399        N  0.64769331  0.15145122  0.73367485    -0.06390
N400        N  0.62174412  0.18611114  0.73531451    -0.58900
Mn401      Mn  0.66699881  0.06028912  0.75097161     1.20190
Mn402      Mn  0.71621969  0.14516107  0.71467330     1.10090
Cl403      Cl  0.74544413  0.10181489  0.75169888    -0.86870
C404        C  0.58530523  0.17504494  0.75057766     0.95460
C405        C  0.67654050  0.03264921  0.67078169     0.95260
N406        N  0.67203050  0.57916229  0.79354003    -0.07020
N407        N  0.64359873  0.56308264  0.81131611    -0.59140
N408        N  0.65774492  0.66555486  0.75923645    -0.06700
N409        N  0.62825929  0.69820482  0.75940733    -0.61270
N410        N  0.63730370  0.63200077  0.74850212    -0.06300
N411        N  0.59309177  0.64132405  0.74168995    -0.59120
N412        N  0.69510051  0.61175416  0.80349872    -0.05980
N413        N  0.68449417  0.61761623  0.82790506    -0.61620
C414        C  0.65306978  0.58697798  0.83282761     0.95150
C415        C  0.58814705  0.68300550  0.74820791     0.94930
N416        N  0.79812598  0.70480876  0.74559367    -0.07210
N417        N  0.80998341  0.74009995  0.73375078    -0.59720
N418        N  0.79447064  0.65217722  0.80144888    -0.05330
N419        N  0.79987642  0.64279892  0.82608148    -0.60970
N420        N  0.83442627  0.64541503  0.78901701    -0.07240
N421        N  0.86745122  0.63099091  0.80482073    -0.59990
N422        N  0.75701723  0.70951323  0.75702937    -0.04970
N423        N  0.73952567  0.74753013  0.75305452    -0.61060
Mn424      Mn  0.72623696  0.66068566  0.78052852     1.18440
C425        C  0.77248596  0.76603850  0.73825912     0.97230
C426        C  0.84560008  0.62987296  0.82795647     0.97900
N427        N  0.67548385  0.55782362  0.70789858    -0.07260
N428        N  0.64188055  0.54075745  0.69300676    -0.63570
N429        N  0.75408709  0.50347883  0.74073667    -0.06060
N430        N  0.76963263  0.46424080  0.74272560    -0.64240
N431        N  0.71346921  0.50828731  0.75305720    -0.06770
N432        N  0.70029701  0.47188614  0.76318023    -0.63830
N433        N  0.71665781  0.55486387  0.69600282    -0.05660
N434        N  0.71159158  0.53684045  0.67312293    -0.64520
Mn435      Mn  0.67315978  0.56872314  0.75067127     1.10660
C436        C  0.66509194  0.52817394  0.67123168     0.98460
C437        C  0.73619509  0.44504981  0.75695140     0.98530
N438        N  0.87244265  0.58190513  0.74728458    -0.06770
N439        N  0.91622029  0.57258545  0.75468921    -0.62150
N440        N  0.81294071  0.60609352  0.69308302    -0.06090
N441        N  0.81407677  0.61137260  0.66776312    -0.58880
N442        N  0.83205307  0.63902990  0.70501893    -0.07400
N443        N  0.84625975  0.66741238  0.68839445    -0.61710
N444        N  0.85262762  0.54883770  0.73604988    -0.06390
N445        N  0.88219444  0.51640774  0.73555203    -0.58900
Mn446      Mn  0.83575010  0.64370470  0.74690894     1.20190
Mn447      Mn  0.78428391  0.55303021  0.71612022     1.10090
Cl448      Cl  0.75453693  0.60645287  0.74845747    -0.86870
C449        C  0.92173842  0.53137480  0.74736729     0.95460
C450        C  0.83464225  0.64995806  0.66535334     0.95260
N451        N  0.18267275  0.32862896  0.79784704    -0.07020
N452        N  0.15853226  0.30970391  0.81644660    -0.59140
N453        N  0.16516484  0.41585927  0.76446884    -0.06700
N454        N  0.13572061  0.44835951  0.76448872    -0.61270
N455        N  0.14549482  0.38249866  0.75318597    -0.06300
N456        N  0.10193854  0.39196097  0.74541313    -0.59120
N457        N  0.20509509  0.36160617  0.80768108    -0.05980
N458        N  0.19877492  0.36489331  0.83262969    -0.61620
C459        C  0.17040679  0.33233579  0.83819247     0.95150
C460        C  0.09645089  0.43335970  0.75244548     0.94930
N461        N  0.30315873  0.45896980  0.75088057    -0.07210
N462        N  0.31278765  0.49416366  0.73832417    -0.59720
N463        N  0.30036992  0.40547509  0.80640380    -0.05330
N464        N  0.30445209  0.39447294  0.83080523    -0.60970
N465        N  0.34057568  0.39907167  0.79422935    -0.07240
N466        N  0.37261315  0.38322704  0.81012680    -0.61110
N467        N  0.26206685  0.46246020  0.76247520    -0.04970
N468        N  0.24245864  0.49947664  0.75805157    -0.61060
Mn469      Mn  0.23309066  0.41229235  0.78541378     1.18440
C470        C  0.27417677  0.51882843  0.74287960     0.97230
C471        C  0.34969586  0.38085117  0.83297538     0.97900
N472        N  0.18307277  0.31062669  0.71181535    -0.07260
N473        N  0.14914791  0.29307941  0.69741210    -0.63570
N474        N  0.26314739  0.25605829  0.74306934    -0.06060
N475        N  0.27914011  0.21679483  0.74413451    -0.64240
N476        N  0.22296763  0.25982825  0.75588696    -0.06770
N477        N  0.21043638  0.22276861  0.76535749    -0.63830
N478        N  0.22372817  0.30867387  0.69929736    -0.05660
N479        N  0.21788531  0.29047165  0.67645690    -0.64520
Mn480      Mn  0.18195492  0.31981902  0.75471377     1.10660
C481        C  0.17140601  0.28089467  0.67531327     0.98460
C482        C  0.24638074  0.19652366  0.75832101     0.98530
N483        N  0.37862220  0.33668064  0.75204244    -0.06770
N484        N  0.41997285  0.32588774  0.76226980    -0.62150
N485        N  0.31978283  0.36293820  0.69713178    -0.06090
N486        N  0.31989428  0.37098751  0.67199324    -0.58880
N487        N  0.33900464  0.39487061  0.71000670    -0.07400
N488        N  0.35228033  0.42488004  0.69431158    -0.61710
N489        N  0.35909914  0.30393399  0.74027947    -0.06390
N490        N  0.38600327  0.27004285  0.74255697    -0.58900
Mn491      Mn  0.34213819  0.39827276  0.75191656     1.20190
Mn492      Mn  0.29190153  0.30774183  0.71932257     1.10090
Cl493      Cl  0.26194752  0.35945407  0.75264601    -0.86870
C494        C  0.42361791  0.28396330  0.75643623     0.95460
C495        C  0.34043284  0.40998629  0.67064061     0.95260
N496        N  0.32516335  0.89198094  0.79593509    -0.07020
N497        N  0.35320409  0.91080268  0.81342514    -0.59140
N498        N  0.34354546  0.79932298  0.76738323    -0.06700
N499        N  0.37291771  0.76654898  0.76790106    -0.61270
N500        N  0.36262587  0.83068433  0.75448512    -0.06300
N501        N  0.40544406  0.81984829  0.74622433    -0.59120
N502        N  0.30089141  0.86209426  0.80728524    -0.05980
N503        N  0.30915242  0.86161107  0.83215329    -0.61620
C504        C  0.34133774  0.89207985  0.83616644     0.95150
C505        C  0.41140912  0.77950932  0.75452418     0.94930
N506        N  0.20530819  0.75328017  0.75512454    -0.07210
N507        N  0.19879883  0.71682910  0.74261227    -0.59720
N508        N  0.20603668  0.81782522  0.80712263    -0.05330
N509        N  0.20134359  0.83227933  0.83094735    -0.60970
N510        N  0.16582612  0.82167934  0.79441466    -0.07240
N511        N  0.13308871  0.83921223  0.80940734    -0.59990
N512        N  0.24589636  0.75260826  0.76759585    -0.04970
N513        N  0.26780338  0.71626560  0.76411413    -0.61060
Mn514      Mn  0.27409115  0.80708190  0.78757773     1.18440
C515        C  0.23830011  0.69417537  0.74849239     0.97230
C516        C  0.15575462  0.84530691  0.83230460     0.97900
N517        N  0.32431350  0.89192886  0.70905959    -0.07260
N518        N  0.35890496  0.90333476  0.69330967    -0.63570
N519        N  0.24289569  0.95245645  0.73572664    -0.06060
N520        N  0.22442107  0.99087352  0.73578146    -0.64240
N521        N  0.28210471  0.95176996  0.74980511    -0.06770
N522        N  0.29094558  0.99006541  0.75946231    -0.63830
N523        N  0.28384541  0.89040265  0.69617550    -0.05660
N524        N  0.29029902  0.90019122  0.67184790    -0.64520
Mn525      Mn  0.32509895  0.89258481  0.75232877     1.10660
C526        C  0.33708297  0.90798634  0.67003177     0.98460
C527        C  0.25443943  0.01414223  0.75064842     0.98530
N528        N  0.12733491  0.87421479  0.74789764    -0.06770
N529        N  0.08513814  0.88627405  0.75640377    -0.62150
N530        N  0.18838463  0.83600028  0.69599295    -0.06090
N531        N  0.18950642  0.82217275  0.67165432    -0.58880
N532        N  0.16891410  0.80707732  0.71058745    -0.07400
N533        N  0.15667976  0.77343829  0.69687042    -0.61710
N534        N  0.14612774  0.90410011  0.73386030    -0.06390
N535        N  0.11740471  0.93710346  0.73257242    -0.58900
Mn536      Mn  0.16501648  0.81329376  0.75229994     1.20190
Mn537      Mn  0.21503041  0.89602179  0.71475701     1.10090
Cl538      Cl  0.24503477  0.85241435  0.75163084    -0.86870
C539        C  0.07941075  0.92577207  0.74673961     0.95460
C540        C  0.16945287  0.78291608  0.67261901     0.95260
N541        N  0.41381859  0.04503393  0.46160618    -0.07020
N542        N  0.39978310  0.07683383  0.44705977    -0.59140
N543        N  0.39267368  0.94837820  0.48460758    -0.06700
N544        N  0.36369829  0.91557899  0.48301184    -0.61270
N545        N  0.37454746  0.97831464  0.49937750    -0.06300
N546        N  0.33272465  0.96641908  0.50826097    -0.59120
N547        N  0.43227751  0.01462390  0.44715472    -0.05980
N548        N  0.43096890  0.02498297  0.42256573    -0.61620
C549        C  0.41064226  0.06388497  0.42270231     0.95150
C550        C  0.32644343  0.92700974  0.49794409     0.94930
N551        N  0.53012916  0.90231469  0.49705802    -0.07210
N552        N  0.53953110  0.86415751  0.50597266    -0.59720
N553        N  0.52803290  0.96094184  0.44419542    -0.05330
N554        N  0.53316951  0.94600697  0.42043623    -0.60970
N555        N  0.56902365  0.96038106  0.45664636    -0.07240
N556        N  0.60225304  0.94425778  0.44139623    -0.59990
N557        N  0.48975758  0.90177361  0.48406600    -0.04970
N558        N  0.47077263  0.86386256  0.48406366    -0.61060
Mn559      Mn  0.46043252  0.95645383  0.46452149     1.18440
C560        C  0.50191099  0.84074827  0.49771955     0.97230
C561        C  0.57947020  0.93577153  0.41880951     0.97900
N562        N  0.41597155  0.02983708  0.54651602    -0.07260
N563        N  0.38414651  0.01228242  0.56171261    -0.63570
N564        N  0.49182520  0.10060852  0.52079076    -0.06060
N565        N  0.50934828  0.13919163  0.52124397    -0.64240
N566        N  0.45094075  0.09950374  0.50859556    -0.06770
N567        N  0.43978475  0.13772526  0.50028786    -0.63830
N568        N  0.45701744  0.03272347  0.55863847    -0.05660
N569        N  0.45387260  0.01737231  0.58213294    -0.64520
Mn570      Mn  0.41204977  0.03925535  0.50419738     1.10660
C571        C  0.40821830  0.00501980  0.58399872     0.98460
C572        C  0.47672837  0.16212544  0.50839052     0.98530
N573        N  0.60873516  0.02366323  0.50235974    -0.06770
N574        N  0.65129935  0.03500975  0.49427848    -0.62150
N575        N  0.55447003  0.99045511  0.55583400    -0.06090
N576        N  0.56806856  0.99085060  0.58008056    -0.58880
N577        N  0.57679709  0.96084469  0.54257122    -0.07400
N578        N  0.60799160  0.94164995  0.55782383    -0.61710
N579        N  0.58994745  0.05426574  0.51661464    -0.06390
N580        N  0.61907649  0.08689891  0.51830235    -0.58900
Mn581      Mn  0.57248179  0.96120210  0.49955116     1.20190
Mn582      Mn  0.52321722  0.04529661  0.53819425     1.10090
Cl583      Cl  0.49231354  0.00065390  0.50143063    -0.86870
C584        C  0.65718734  0.07473470  0.50424807     0.95460
C585        C  0.60083480  0.96011297  0.58139174     0.95260
N586        N  0.41463564  0.54967028  0.46001594    -0.07020
N587        N  0.40354299  0.58389527  0.44691379    -0.59140
N588        N  0.39194305  0.45036300  0.47956264    -0.06700
N589        N  0.36466253  0.41634143  0.47792057    -0.61270
N590        N  0.37216601  0.47951674  0.49429425    -0.06300
N591        N  0.33078552  0.46614871  0.50284212    -0.59120
N592        N  0.43525835  0.52125571  0.44495544    -0.05980
N593        N  0.43855348  0.53586601  0.42115260    -0.61620
C594        C  0.41868862  0.57513622  0.42268842     0.95150
C595        C  0.32656214  0.42654923  0.49256772     0.94930
N596        N  0.52748497  0.40422640  0.49539138    -0.07210
N597        N  0.53607356  0.36596888  0.50431589    -0.59720
N598        N  0.53164748  0.46841695  0.44454029    -0.05330
N599        N  0.54078503  0.46071506  0.42001245    -0.60970
N600        N  0.57097841  0.46699912  0.45839977    -0.07240
N601        N  0.60742329  0.45776712  0.44329792    -0.59990
N602        N  0.48917731  0.40369864  0.48064289    -0.04970
N603        N  0.47091965  0.36531073  0.47943389    -0.61060
Mn604      Mn  0.46158892  0.46064183  0.46164261     1.18440
C605        C  0.50041030  0.34206504  0.49423788     0.97230
C606        C  0.58809060  0.45457656  0.41931918     0.97900
N607        N  0.40703153  0.52855822  0.54374357    -0.07260
N608        N  0.37349225  0.51139404  0.55810689    -0.63570
N609        N  0.48649801  0.60070652  0.52172006    -0.06060
N610        N  0.50489423  0.63883490  0.52282859    -0.64240
N611        N  0.44646639  0.60036240  0.50870776    -0.06770
N612        N  0.43672999  0.63884802  0.50042286    -0.63830
N613        N  0.44654456  0.53263405  0.55715741    -0.05660
N614        N  0.44063374  0.51906874  0.58083377    -0.64520
Mn615      Mn  0.40812948  0.54032389  0.50180943     1.10660
C616        C  0.39502550  0.50626907  0.58136200     0.98460
C617        C  0.47366035  0.66232500  0.50950092     0.98530
N618        N  0.60515259  0.52476499  0.50638746    -0.06770
N619        N  0.64763796  0.53660921  0.49851671    -0.62150
N620        N  0.54205495  0.48923903  0.55669820    -0.06090
N621        N  0.54764371  0.48646343  0.58169059    -0.58880
N622        N  0.56600864  0.45972188  0.54432564    -0.07400
N623        N  0.59081621  0.43730584  0.56129880    -0.61710
N624        N  0.58527829  0.55516065  0.52029029    -0.06390
N625        N  0.61395766  0.58827453  0.52207112    -0.58900
Mn626      Mn  0.56893025  0.46302560  0.50114008     1.20190
Mn627      Mn  0.51526949  0.54530738  0.53918573     1.10090
Cl628      Cl  0.48868595  0.50232283  0.50078961    -0.86870
C629        C  0.65278323  0.57646087  0.50832936     0.95460
C630        C  0.57754444  0.45390899  0.58468359     0.95260
N631        N  0.91797124  0.29667098  0.46287167    -0.07020
N632        N  0.90818590  0.33066120  0.44928389    -0.59140
N633        N  0.89378772  0.20000343  0.48476197    -0.06700
N634        N  0.86472798  0.16732462  0.48274020    -0.61270
N635        N  0.87515513  0.22993312  0.49934098    -0.06300
N636        N  0.83263444  0.21840000  0.50736810    -0.59120
N637        N  0.93780047  0.26719030  0.44822577    -0.05980
N638        N  0.94158776  0.28076074  0.42421956    -0.61620
C639        C  0.92300335  0.32056326  0.42519153     0.95150
C640        C  0.82661526  0.17906181  0.49691024     0.94930
N641        N  0.02833438  0.15150483  0.50049353    -0.07210
N642        N  0.03708235  0.11293277  0.50896078    -0.59720
N643        N  0.03231440  0.20941622  0.44735243    -0.05330
N644        N  0.03877175  0.19283232  0.42410743    -0.60970
N645        N  0.07218133  0.20798347  0.46083713    -0.07240
N646        N  0.10597263  0.19015228  0.44668842    -0.59990
N647        N  0.98952345  0.15135298  0.48610363    -0.04970
N648        N  0.97117352  0.11315001  0.48460595    -0.61060
Mn649      Mn  0.96296897  0.20710620  0.46596504     1.18440
C650        C  0.00098171  0.08951553  0.49883598     0.97230
C651        C  0.08468580  0.18095584  0.42377310     0.97900
N652        N  0.91499155  0.28192585  0.54737976    -0.07260
N653        N  0.88298130  0.26503140  0.56276776    -0.63570
N654        N  0.99319685  0.35113659  0.52115946    -0.06060
N655        N  0.01132115  0.38941408  0.52095223    -0.64240
N656        N  0.95176758  0.35014084  0.50955004    -0.06770
N657        N  0.94050636  0.38814979  0.50104601    -0.63830
N658        N  0.95566496  0.28609542  0.55972497    -0.05660
N659        N  0.95220057  0.27223151  0.58351442    -0.64520
Mn660      Mn  0.91297834  0.29032971  0.50500577     1.10660
C661        C  0.90677489  0.25950742  0.58536789     0.98460
C662        C  0.97830642  0.41199773  0.50825907     0.98530
N663        N  0.10998352  0.27143005  0.50615428    -0.06770
N664        N  0.15234427  0.28224099  0.49743859    -0.62150
N665        N  0.05019216  0.24228597  0.55879960    -0.06090
N666        N  0.05721075  0.24184626  0.58377065    -0.58880
N667        N  0.07203560  0.21074885  0.54713536    -0.07400
N668        N  0.09679453  0.18907209  0.56452187    -0.61710
N669        N  0.09085944  0.30333598  0.51911593    -0.06390
N670        N  0.11963791  0.33629735  0.51938902    -0.58900
Mn671      Mn  0.07210151  0.20966449  0.50377011     1.20190
Mn672      Mn  0.02270324  0.29666020  0.53979535     1.10090
Cl673      Cl  0.99293333  0.25087975  0.50346587    -0.86870
C674        C  0.15781706  0.32301572  0.50572279     0.95460
C675        C  0.08572216  0.20854155  0.58745453     0.95260
N676        N  0.91647653  0.79464045  0.46264660    -0.07020
N677        N  0.90320350  0.82711472  0.44865893    -0.59140
N678        N  0.89266203  0.69763809  0.48441988    -0.06700
N679        N  0.86347904  0.66493660  0.48263423    -0.61270
N680        N  0.87400446  0.72786649  0.49876455    -0.06300
N681        N  0.83157409  0.71639915  0.50700667    -0.59120
N682        N  0.93507677  0.76469387  0.44792808    -0.05980
N683        N  0.93492893  0.77628497  0.42350330    -0.61620
C684        C  0.91481022  0.81531715  0.42431647     0.95150
C685        C  0.82540508  0.67684626  0.49687290     0.94930
N686        N  0.03040319  0.65129733  0.49797536    -0.07210
N687        N  0.03915877  0.61333952  0.50733112    -0.59720
N688        N  0.03010847  0.71139548  0.44602844    -0.05330
N689        N  0.03652314  0.69957049  0.42181638    -0.60970
N690        N  0.07085712  0.71177062  0.45865137    -0.07240
N691        N  0.10558545  0.69994543  0.44295244    -0.59990
N692        N  0.99001724  0.65092377  0.48497144    -0.04970
N693        N  0.97018006  0.61334397  0.48551932    -0.61060
Mn694      Mn  0.96167718  0.70586529  0.46525970     1.18440
C695        C  0.00090153  0.59044305  0.49955131     0.97230
C696        C  0.08355278  0.69276165  0.41998704     0.97900
N697        N  0.91314707  0.77837064  0.54645263    -0.07260
N698        N  0.87954061  0.76074016  0.56037568    -0.63570
N699        N  0.99173914  0.84817041  0.52345020    -0.06060
N700        N  0.00939431  0.88659531  0.52518654    -0.64240
N701        N  0.95186508  0.84787105  0.51028019    -0.06770
N702        N  0.94158887  0.88656771  0.50249501    -0.63830
N703        N  0.95348226  0.77929107  0.55938052    -0.05660
N704        N  0.94809648  0.76209282  0.58223050    -0.64520
Mn705      Mn  0.91228571  0.78827268  0.50462783     1.10660
C706        C  0.90178563  0.75121629  0.58274714     0.98460
C707        C  0.97788337  0.91026520  0.51213833     0.98530
N708        N  0.10861691  0.77229323  0.50534492    -0.06770
N709        N  0.15068427  0.78426239  0.49692166    -0.62150
N710        N  0.05156612  0.73673340  0.55781754    -0.06090
N711        N  0.06403990  0.73648658  0.58221578    -0.58880
N712        N  0.07525718  0.70810920  0.54446518    -0.07400
N713        N  0.10630193  0.68900920  0.55985491    -0.61710
N714        N  0.08991471  0.80217444  0.52017014    -0.06390
N715        N  0.11893441  0.83495013  0.52208898    -0.58900
Mn716      Mn  0.07269897  0.71012881  0.50144487     1.20190
Mn717      Mn  0.02158042  0.79230018  0.54054826     1.10090
Cl718      Cl  0.99230504  0.74919110  0.50283344    -0.86870
C719        C  0.15662739  0.82359366  0.50738665     0.95460
C720        C  0.09760384  0.70646882  0.58354383     0.95260
C721        C  0.98295906  0.45740140  0.50435312    -0.06370
C722        C  0.94387791  0.48408092  0.50812177    -0.33800
C723        C  0.94973000  0.52794523  0.50752851     0.35450
C724        C  0.99503903  0.54511026  0.50308142    -0.06730
C725        C  0.03390268  0.51837084  0.49906900    -0.33700
C726        C  0.02784892  0.47464573  0.49926275     0.35360
H727        H  0.90925433  0.47098614  0.51226289     0.15730
O728        O  0.91118450  0.55378726  0.51154758    -0.61200
H729        H  0.06854041  0.53135264  0.49481085     0.15740
O730        O  0.06579506  0.44885764  0.49396548    -0.61290
H731        H  0.06378332  0.44274307  0.47514490     0.42740
H732        H  0.91168132  0.56066434  0.53029986     0.42690
C733        C  0.99521750  0.04361162  0.50195077    -0.06370
C734        C  0.01690891  0.02369293  0.52289938    -0.33800
C735        C  0.01112382  0.98029093  0.52656648     0.35450
C736        C  0.98315619  0.95618861  0.50908559    -0.06730
C737        C  0.96150251  0.97605962  0.48811315    -0.33700
C738        C  0.96741611  0.01945474  0.48439355     0.35360
H739        H  0.03791691  0.04187289  0.53669332     0.15730
O740        O  0.03150893  0.96211470  0.54784913    -0.61200
H741        H  0.94063141  0.95781069  0.47428730     0.15740
O742        O  0.94745525  0.03750703  0.46295722    -0.61290
H743        H  0.91380267  0.04273527  0.46754732     0.42740
H744        H  0.06514858  0.95717040  0.54311613     0.42690
C745        C  0.20106435  0.34934954  0.50181874    -0.06370
C746        C  0.24401468  0.33046555  0.49399817    -0.33800
C747        C  0.28540428  0.35486364  0.49116968     0.35450
C748        C  0.28429956  0.39905756  0.49597867    -0.06730
C749        C  0.24155748  0.41770989  0.50390201    -0.33700
C750        C  0.20027673  0.39353681  0.50655432     0.35360
H751        H  0.24576745  0.29657986  0.49041873     0.15730
O752        O  0.32672840  0.33502844  0.48400087    -0.61200
H753        H  0.23965468  0.45157558  0.50757711     0.15740
O754        O  0.15910626  0.41375739  0.51346765    -0.61290
H755        H  0.15104177  0.43175116  0.49852777     0.42740
H756        H  0.34274195  0.32760939  0.50044127     0.42690
C757        C  0.69659922  0.60269375  0.50544865    -0.06370
C758        C  0.73721921  0.58467534  0.49402551    -0.33800
C759        C  0.77917888  0.60814850  0.49120436     0.35450
C760        C  0.78156474  0.65074960  0.49995239    -0.06730
C761        C  0.74099344  0.66876573  0.51142256    -0.33700
C762        C  0.69897911  0.64528151  0.51420831     0.35360
H763        H  0.73669076  0.55200418  0.48729325     0.15730
O764        O  0.81793014  0.58861820  0.48037430    -0.61200
H765        H  0.74158622  0.70143995  0.51814653     0.15740
O766        O  0.66017503  0.66477455  0.52499285    -0.61290
H767        H  0.66465955  0.66220187  0.54391929     0.42740
H768        H  0.81323909  0.59094970  0.46144774     0.42690
C769        C  0.28314580  0.90052228  0.50090997    -0.06370
C770        C  0.27476302  0.86667567  0.48350035    -0.33800
C771        C  0.23377814  0.84168554  0.48518981     0.35450
C772        C  0.20016892  0.84988689  0.50473529    -0.06730
C773        C  0.20867158  0.88358842  0.52224230    -0.33700
C774        C  0.24974997  0.90853180  0.52057727     0.35360
H775        H  0.29977633  0.85982264  0.46817589     0.15730
O776        O  0.22687799  0.80959333  0.46742607    -0.61200
H777        H  0.18367001  0.89036608  0.53758309     0.15740
O778        O  0.25699741  0.94033345  0.53848440    -0.61290
H779        H  0.27519239  0.92694524  0.55266032     0.42740
H780        H  0.20895737  0.82270636  0.45305224     0.42690
C781        C  0.49530221  0.79527210  0.50162924    -0.06370
C782        C  0.45000590  0.77788348  0.49723134    -0.33800
C783        C  0.44234896  0.73445721  0.49919218     0.35450
C784        C  0.48026788  0.70785360  0.50589172    -0.06730
C785        C  0.52557021  0.72522000  0.51030470    -0.33700
C786        C  0.53326549  0.76864237  0.50826575     0.35360
H787        H  0.42023189  0.79800502  0.49223227     0.15730
O788        O  0.39745153  0.71871436  0.49544961    -0.61200
H789        H  0.55535310  0.70506718  0.51524731     0.15740
O790        O  0.57825717  0.78431348  0.51175716    -0.61290
H791        H  0.58182438  0.78852553  0.53068648     0.42740
H792        H  0.39436038  0.71423703  0.47651482     0.42690
C793        C  0.48171483  0.20815860  0.50446656    -0.06370
C794        C  0.52102736  0.22909472  0.51553424    -0.33800
C795        C  0.52742713  0.27259611  0.51263333     0.35450
C796        C  0.49438015  0.29613349  0.49822625    -0.06730
C797        C  0.45499019  0.27525385  0.48714491    -0.33700
C798        C  0.44858161  0.23162630  0.49008173     0.35360
H799        H  0.54715095  0.21176498  0.52662971     0.15730
O800        O  0.56660820  0.29143928  0.52361395    -0.61200
H801        H  0.42900780  0.29271035  0.47602891     0.15740
O802        O  0.40971138  0.21251084  0.47895341    -0.61290
H803        H  0.41980696  0.20441278  0.46123157     0.42740
H804        H  0.55718444  0.29865572  0.54157841     0.42690
C805        C  0.78323091  0.15255303  0.49934452    -0.06370
C806        C  0.78417831  0.10996520  0.49086391    -0.33800
C807        C  0.74373340  0.08420656  0.49228304     0.35450
C808        C  0.70087984  0.10092251  0.50205577    -0.06730
C809        C  0.70004389  0.14343442  0.51066621    -0.33700
C810        C  0.74049558  0.16913834  0.50932558     0.35360
H811        H  0.81657258  0.09632972  0.48319260     0.15730
O812        O  0.74675550  0.04273737  0.48413754    -0.61200
H813        H  0.66769313  0.15709913  0.51836942     0.15740
O814        O  0.73756944  0.21048186  0.51772512    -0.61290
H815        H  0.72650560  0.22658286  0.50250852     0.42740
H816        H  0.75755042  0.02687375  0.49950490     0.42690
C817        C  0.35707942  0.93030561  0.64743587    -0.06370
C818        C  0.32555895  0.94552430  0.62846467    -0.33800
C819        C  0.34143561  0.97039812  0.60811872     0.35450
C820        C  0.38993915  0.98007749  0.60594779    -0.06730
C821        C  0.42174294  0.96434475  0.62464282    -0.33700
C822        C  0.40570774  0.93960753  0.64518579     0.35360
H823        H  0.28788291  0.93915455  0.62966923     0.15730
O824        O  0.30895873  0.98535260  0.59063937    -0.61200
H825        H  0.45935081  0.97097768  0.62329997     0.15740
O826        O  0.43783248  0.92513820  0.66299746    -0.61290
H827        H  0.44839406  0.89714780  0.65619213     0.42740
H828        H  0.29846726  0.01314052  0.59778754     0.42690
C829        C  0.15962245  0.75416688  0.65022516    -0.06370
C830        C  0.18325316  0.75932896  0.62667825    -0.33800
C831        C  0.16917883  0.73616275  0.60456197     0.35450
C832        C  0.13028090  0.70816987  0.60569423    -0.06730
C833        C  0.11041327  0.69955750  0.62975661    -0.33700
C834        C  0.12446474  0.72229680  0.65186945     0.35360
H835        H  0.21092999  0.78292955  0.62506233     0.15730
O836        O  0.18904782  0.74566913  0.58123259    -0.61200
H837        H  0.07973977  0.67895669  0.63087558     0.15740
O838        O  0.10045234  0.71556345  0.67443222    -0.61290
H839        H  0.07218052  0.73429904  0.67362322     0.42740
H840        H  0.21321378  0.72329134  0.57819562     0.42690
C841        C  0.35037850  0.43475035  0.64702411    -0.06370
C842        C  0.37837190  0.47141354  0.64991846    -0.33800
C843        C  0.39068395  0.49580621  0.62879716     0.35450
C844        C  0.37505323  0.48421855  0.60386246    -0.06730
C845        C  0.34538148  0.44862884  0.60076376    -0.33700
C846        C  0.33332164  0.42365818  0.62215789     0.35360
H847        H  0.39183405  0.48114644  0.66871724     0.15730
O848        O  0.41914491  0.53059682  0.63274166    -0.61200
H849        H  0.33327704  0.43911069  0.58165409     0.15740
O850        O  0.30501197  0.38876036  0.61851206    -0.61290
H851        H  0.32703409  0.36541042  0.61374644     0.42740
H852        H  0.39697652  0.55480574  0.63497644     0.42690
C853        C  0.15108111  0.25321109  0.65453086    -0.06370
C854        C  0.17937941  0.24214166  0.63307013    -0.33800
C855        C  0.16048736  0.21942178  0.61194472     0.35450
C856        C  0.11247947  0.20748837  0.61192246    -0.06730
C857        C  0.08591176  0.21404212  0.63458193    -0.33700
C858        C  0.10453983  0.23714861  0.65562015     0.35360
H859        H  0.21568552  0.25315874  0.63192750     0.15730
O860        O  0.18730414  0.21446271  0.59008393    -0.61200
H861        H  0.04865271  0.20554693  0.63479421     0.15740
O862        O  0.07613909  0.24537212  0.67653493    -0.61290
H863        H  0.05745752  0.27085298  0.67187523     0.42740
H864        H  0.20120872  0.18566091  0.59131020     0.42690
C865        C  0.26899020  0.56350022  0.73610335    -0.06370
C866        C  0.22351168  0.57884322  0.73000015    -0.33800
C867        C  0.21340921  0.62222421  0.73171054     0.35450
C868        C  0.24904619  0.65047000  0.74001966    -0.06730
C869        C  0.29558978  0.63533311  0.74351736    -0.33700
C870        C  0.30582178  0.59217671  0.74143612     0.35360
H871        H  0.19493308  0.55684757  0.72569821     0.15730
O872        O  0.16804382  0.63608316  0.72706230    -0.61200
H873        H  0.32362689  0.65668321  0.74960149     0.15740
O874        O  0.35030393  0.57808081  0.74797181    -0.61290
H875        H  0.36874731  0.57890473  0.73173062     0.42740
H876        H  0.15084460  0.63212275  0.74351758     0.42690
C877        C  0.24944277  0.06067808  0.75505489    -0.06370
C878        C  0.28447563  0.08308770  0.76905240    -0.33800
C879        C  0.28256560  0.12742994  0.77144898     0.35450
C880        C  0.24499314  0.15000705  0.76010444    -0.06730
C881        C  0.20889967  0.12777774  0.74715797    -0.33700
C882        C  0.21091553  0.08358416  0.74443661     0.35360
H883        H  0.31420461  0.06638656  0.77752926     0.15730
O884        O  0.31823854  0.14853706  0.78432195    -0.61200
H885        H  0.18021178  0.14494063  0.73796061     0.15740
O886        O  0.17618059  0.06354619  0.73021054    -0.61290
H887        H  0.15060696  0.05740175  0.74269330     0.42740
H888        H  0.30676645  0.15203084  0.80230580     0.42690
C889        C  0.60513377  0.45338938  0.60883627    -0.06370
C890        C  0.65229026  0.46696380  0.60760857    -0.33800
C891        C  0.67247174  0.49054970  0.62797724     0.35450
C892        C  0.64550796  0.50046143  0.65030903    -0.06730
C893        C  0.60029021  0.48251891  0.65269291    -0.33700
C894        C  0.58012319  0.45910566  0.63219414     0.35360
H895        H  0.67165915  0.46393506  0.58964030     0.15730
O896        O  0.71714954  0.50678255  0.62476954    -0.61200
H897        H  0.57958673  0.48820132  0.66997228     0.15740
O898        O  0.53413782  0.44521268  0.63415306    -0.61290
H899        H  0.51401163  0.47083273  0.63225211     0.42740
H900        H  0.73908405  0.48360095  0.62968695     0.42690
C901        C  0.88187902  0.72304301  0.60230202    -0.06370
C902        C  0.91076820  0.69094058  0.61241739    -0.33800
C903        C  0.89376189  0.66420180  0.63150237     0.35450
C904        C  0.84766249  0.66985974  0.64106441    -0.06730
C905        C  0.81821188  0.70120845  0.63060453    -0.33700
C906        C  0.83483388  0.72734488  0.61092799     0.35360
H907        H  0.94685111  0.68680992  0.60567266     0.15730
O908        O  0.92344286  0.63434555  0.64187067    -0.61200
H909        H  0.78308006  0.70653479  0.63843152     0.15740
O910        O  0.80617718  0.75890848  0.60165467    -0.61290
H911        H  0.78720516  0.74530605  0.58765237     0.42740
H912        H  0.91681148  0.60789023  0.63192864     0.42690
C913        C  0.96661617  0.50663952  0.74911282    -0.06370
C914        C  0.96896875  0.46606083  0.73748899    -0.33800
C915        C  0.01081518  0.44197095  0.73811186     0.35450
C916        C  0.05169139  0.45826359  0.75045469    -0.06730
C917        C  0.04937368  0.49891293  0.76201466    -0.33700
C918        C  0.00752551  0.52299497  0.76140443     0.35360
H919        H  0.93821861  0.45279050  0.72770252     0.15730
O920        O  0.01138764  0.40286461  0.72620623    -0.61200
H921        H  0.08011224  0.51220091  0.77180451     0.15740
O922        O  0.00696041  0.56210363  0.77331939    -0.61290
H923        H  0.01991848  0.58188127  0.76041435     0.42740
H924        H  0.99834166  0.38311021  0.73909788     0.42690
C925        C  0.54256434  0.70725292  0.74750298    -0.06370
C926        C  0.49948296  0.68668808  0.75253105    -0.33800
C927        C  0.45670776  0.70959589  0.75461816     0.35450
C928        C  0.45597453  0.75399941  0.75121131    -0.06730
C929        C  0.49891104  0.77429645  0.74525037    -0.33700
C930        C  0.54186557  0.75150663  0.74378151     0.35360
H931        H  0.49911508  0.65280532  0.75569526     0.15730
O932        O  0.41587184  0.68812717  0.76020147    -0.61200
H933        H  0.49952734  0.80824587  0.74237935     0.15740
O934        O  0.58291324  0.77273993  0.73818197    -0.61290
H935        H  0.59360124  0.78553155  0.75482276     0.42740
H936        H  0.40487364  0.67618417  0.74339983     0.42690
C937        C  0.66795243  0.00516639  0.64766944    -0.06370
C938        C  0.63599508  0.97109354  0.64961450    -0.33800
C939        C  0.61884651  0.95007947  0.62747334     0.35450
C940        C  0.63482595  0.96187358  0.60296024    -0.06730
C941        C  0.67147383  0.99191296  0.60128541    -0.33700
C942        C  0.68779804  0.01381544  0.62338956     0.35360
H943        H  0.62093688  0.96302432  0.66811354     0.15730
O944        O  0.58283540  0.92113355  0.62974798    -0.61200
H945        H  0.68329592  0.00218375  0.58249108     0.15740
O946        O  0.72029679  0.04572573  0.62067775    -0.61290
H947        H  0.75157740  0.03224348  0.62380301     0.42740
H948        H  0.55331811  0.93818830  0.63113147     0.42690
C949        C  0.85742428  0.18512587  0.64911021    -0.06370
C950        C  0.82497640  0.20405605  0.63190947    -0.33800
C951        C  0.84037823  0.22902616  0.61152101     0.35450
C952        C  0.88911699  0.23509638  0.60757929    -0.06730
C953        C  0.92175334  0.21624779  0.62471323    -0.33700
C954        C  0.90623990  0.19156798  0.64539080     0.35360
H955        H  0.78710562  0.20027595  0.63448118     0.15730
O956        O  0.80734343  0.24758533  0.59572750    -0.61200
H957        H  0.95955593  0.22012249  0.62190451     0.15740
O958        O  0.93904039  0.17280909  0.66122819    -0.61290
H959        H  0.94900920  0.19538852  0.67361754     0.42740
H960        H  0.80127850  0.27592574  0.60359075     0.42690
C961        C  0.95467707  0.00538662  0.75438982    -0.06370
C962        C  0.95670353  0.96564901  0.76640103    -0.33800
C963        C  0.99685932  0.93955648  0.76428503     0.35450
C964        C  0.03641659  0.95287137  0.74996170    -0.06730
C965        C  0.03451909  0.99272193  0.73804974    -0.33700
C966        C  0.99434188  0.01887652  0.74021660     0.35360
H967        H  0.92692770  0.95450779  0.77757006     0.15730
O968        O  0.99704748  0.90133478  0.77659036    -0.61200
H969        H  0.06432289  0.00380056  0.72687969     0.15740
O970        O  0.99410873  0.05717309  0.72799703    -0.61290
H971        H  0.00971386  0.07722828  0.74026751     0.42740
H972        H  0.98103552  0.88130093  0.76446503     0.42690
C973        C  0.75586310  0.89856280  0.74238592    -0.06370
C974        C  0.72374042  0.87448655  0.72750767    -0.33800
C975        C  0.73141069  0.83109613  0.72348767     0.35450
C976        C  0.77189738  0.81164896  0.73402205    -0.06730
C977        C  0.80616100  0.83622880  0.74670299    -0.33700
C978        C  0.79822163  0.87929223  0.75130712     0.35360
H979        H  0.69143619  0.88870808  0.72018122     0.15730
O980        O  0.69768825  0.80738448  0.71073045    -0.61200
H981        H  0.83709798  0.82130692  0.75520252     0.15740
O982        O  0.83115630  0.90155957  0.76562181    -0.61290
H983        H  0.82383898  0.89531132  0.78390698     0.42740
H984        H  0.70851138  0.80586227  0.69254266     0.42690
C985        C  0.73489988  0.39880914  0.75985455    -0.06370
C986        C  0.77242417  0.37830088  0.77242184    -0.33800
C987        C  0.77686356  0.33403338  0.77116538     0.35450
C988        C  0.74391718  0.30971463  0.75663923    -0.06730
C989        C  0.70530037  0.33048362  0.74494528    -0.33700
C990        C  0.70060231  0.37461273  0.74654960     0.35360
H991        H  0.79920090  0.39679167  0.78257953     0.15730
O992        O  0.81405723  0.31512754  0.78375073    -0.61200
H993        H  0.67948587  0.31269605  0.73365481     0.15740
O994        O  0.66476810  0.39405604  0.73311859    -0.61290
H995        H  0.63765124  0.39534062  0.74523030     0.42740
H996        H  0.84145162  0.31757517  0.77191842     0.42690
C997        C  0.54570343  0.20399074  0.75704226    -0.06370
C998        C  0.50122552  0.18723957  0.76324923    -0.33800
C999        C  0.46132006  0.21362534  0.76475288     0.35450
C1000       C  0.46591332  0.25753352  0.76077534    -0.06730
C1001       C  0.51103571  0.27481948  0.75702986    -0.33700
C1002       C  0.55078529  0.24839801  0.75497150     0.35360
H1003       H  0.49675603  0.15336213  0.76540346     0.15730
O1004       O  0.41777035  0.19617691  0.76968530    -0.61200
H1005       H  0.51509771  0.30853418  0.75395312     0.15740
O1006       O  0.59398470  0.26622773  0.74972494    -0.61290
H1007       H  0.60939158  0.27070814  0.76680901     0.42740
H1008       H  0.40724144  0.18312092  0.75308568     0.42690
C1009       C  0.89698302  0.56823966  0.89643963    -0.06370
C1010       C  0.91564777  0.55693337  0.87221456    -0.33800
C1011       C  0.90075345  0.57781916  0.84977520     0.35450
C1012       C  0.86577984  0.60991158  0.85129191    -0.06730
C1013       C  0.84726629  0.62114759  0.87545586    -0.33700
C1014       C  0.86287652  0.60117483  0.89787120     0.35360
H1015       H  0.94187324  0.53189316  0.87063920     0.15730
O1016       O  0.91875685  0.56498784  0.82637393    -0.61200
H1017       H  0.82025938  0.64554054  0.87702075     0.15740
O1018       O  0.84290535  0.61310085  0.92096798    -0.61290
H1019       H  0.86076523  0.63865642  0.92670562     0.42740
H1020       H  0.94866567  0.58113693  0.82443510     0.42690
C1021       C  0.14418776  0.33475913  0.86261362    -0.06370
C1022       C  0.09657217  0.34728976  0.86143168    -0.33800
C1023       C  0.07682168  0.37244948  0.88117650     0.35450
C1024       C  0.10488139  0.38534958  0.90266769    -0.06730
C1025       C  0.15079655  0.36860330  0.90512212    -0.33700
C1026       C  0.17041810  0.34351494  0.88533359     0.35360
H1027       H  0.07621890  0.34181944  0.84387960     0.15730
O1028       O  0.03122982  0.38687166  0.87816252    -0.61200
H1029       H  0.17251557  0.37660721  0.92180982     0.15740
O1030       O  0.21691895  0.33087535  0.88723194    -0.61290
H1031       H  0.23590891  0.35652827  0.88361493     0.42740
H1032       H  0.01083849  0.36404892  0.88498647     0.42690
C1033       C  0.90126990  0.09697371  0.90135219    -0.06370
C1034       C  0.85764267  0.11790954  0.90442930    -0.33800
C1035       C  0.83864014  0.14244517  0.88449722     0.35450
C1036       C  0.86289734  0.14602862  0.86086748    -0.06730
C1037       C  0.90867790  0.12900640  0.85882430    -0.33700
C1038       C  0.92769473  0.10422018  0.87864179     0.35360
H1039       H  0.83726289  0.11395850  0.92191168     0.15730
O1040       O  0.79364136  0.15853803  0.88706275    -0.61200
H1041       H  0.92736568  0.13038624  0.84060749     0.15740
O1042       O  0.97089488  0.08511273  0.87480158    -0.61290
H1043       H  0.96362647  0.05758037  0.86617652     0.42740
H1044       H  0.79812757  0.18844876  0.89269426     0.42690
C1045       C  0.13734761  0.87027948  0.85459506    -0.06370
C1046       C  0.16764079  0.87694013  0.87589347    -0.33800
C1047       C  0.15349528  0.90163382  0.89698342     0.35450
C1048       C  0.10813506  0.92023118  0.89735371    -0.06730
C1049       C  0.07783332  0.91465050  0.87598755    -0.33700
C1050       C  0.09199530  0.88951201  0.85472023     0.35360
H1051       H  0.20287498  0.86315809  0.87627293     0.15730
O1052       O  0.18453994  0.90752218  0.91722657    -0.61200
H1053       H  0.04271207  0.92867563  0.87612815     0.15740
O1054       O  0.06143802  0.88431792  0.83422842    -0.61290
H1055       H  0.04211914  0.85910480  0.83843684     0.42740
H1056       H  0.20219262  0.93376844  0.91317107     0.42690
C1057       C  0.01057195  0.78960365  0.98703116    -0.06370
C1058       C  0.05022767  0.76294832  0.98584535    -0.33800
C1059       C  0.04451234  0.71886963  0.98584230     0.35450
C1060       C  0.99852915  0.70104187  0.98656744    -0.06730
C1061       C  0.95897502  0.72772586  0.98461743    -0.33700
C1062       C  0.96476063  0.77178378  0.98486701     0.35360
H1063       H  0.08568375  0.77612108  0.98695469     0.15730
O1064       O  0.08411441  0.69346273  0.98597617    -0.61200
H1065       H  0.92345471  0.71463153  0.98479311     0.15740
O1066       O  0.92523385  0.79716490  0.98451609    -0.61290
H1067       H  0.92080798  0.80489268  0.96615978     0.42740
H1068       H  0.09707741  0.69560220  0.00380122     0.42690
C1069       C  0.99631299  0.20130657  0.01528273    -0.06370
C1070       C  0.04153827  0.21980013  0.01735403    -0.33800
C1071       C  0.04703881  0.26391359  0.01754181     0.35450
C1072       C  0.00688301  0.29021827  0.01527300    -0.06730
C1073       C  0.96149945  0.27174052  0.01504398    -0.33700
C1074       C  0.95597990  0.22765244  0.01535440     0.35360
H1075       H  0.07295002  0.19993603  0.01760243     0.15730
O1076       O  0.09190541  0.28071178  0.01818689    -0.61200
H1077       H  0.93015144  0.29150680  0.01344568     0.15740
O1078       O  0.91127986  0.21080774  0.01319707    -0.61290
H1079       H  0.89964030  0.20889217  0.03118502     0.42740
H1080       H  0.10236744  0.28094846  0.99992530     0.42690
C1081       C  0.59501175  0.63635503  0.90091850    -0.06370
C1082       C  0.56987487  0.64055846  0.87760073    -0.33800
C1083       C  0.58378921  0.61788587  0.85536184     0.35450
C1084       C  0.62380235  0.59105525  0.85611641    -0.06730
C1085       C  0.64636031  0.58417471  0.87984671    -0.33700
C1086       C  0.63232284  0.60638943  0.90213591     0.35360
H1087       H  0.54083899  0.66298853  0.87627028     0.15730
O1088       O  0.56195487  0.62640419  0.83226965    -0.61200
H1089       H  0.67813714  0.56479846  0.88058070     0.15740
O1090       O  0.65802427  0.60103428  0.92443742    -0.61290
H1091       H  0.68484015  0.62126521  0.92332818     0.42740
H1092       H  0.53839056  0.60338222  0.82974868     0.42690
C1093       C  0.40321764  0.83285950  0.89909079    -0.06370
C1094       C  0.36510327  0.86085404  0.90320760    -0.33800
C1095       C  0.34945859  0.88785276  0.88353424     0.35450
C1096       C  0.37169488  0.88721457  0.85916854    -0.06730
C1097       C  0.41257137  0.86236527  0.85593580    -0.33700
C1098       C  0.42789626  0.83489905  0.87537630     0.35360
H1099       H  0.34631114  0.86086960  0.92140492     0.15730
O1100       O  0.30891810  0.91120396  0.88726487    -0.61200
H1101       H  0.42918752  0.86013186  0.83712397     0.15740
O1102       O  0.46542689  0.80837760  0.87027640    -0.61290
H1103       H  0.45110229  0.78235714  0.86260995     0.42740
H1104       H  0.32007863  0.93973750  0.89278707     0.42690
C1105       C  0.29939347  0.63924680  0.99918050    -0.06370
C1106       C  0.30000750  0.59575637  0.00488878    -0.33800
C1107       C  0.25833958  0.57143958  0.00369130     0.35450
C1108       C  0.21491118  0.59050754  0.99685621    -0.06730
C1109       C  0.21429019  0.63368715  0.99073593    -0.33700
C1110       C  0.25598715  0.65792562  0.99158816     0.35360
H1111       H  0.33277473  0.58062136  0.01078621     0.15730
O1112       O  0.26013507  0.52954995  0.01040687    -0.61200
H1113       H  0.18110999  0.64888781  0.98559282     0.15740
O1114       O  0.25348245  0.70007073  0.98555086    -0.61290
H1115       H  0.24453722  0.71480860  0.00186288     0.42740
H1116       H  0.25398629  0.52934983  0.02925408     0.42690
C1117       C  0.71446883  0.83992161  0.99640225    -0.06370
C1118       C  0.75521384  0.82557192  0.00915852    -0.33800
C1119       C  0.79640624  0.85036166  0.01044082     0.35450
C1120       C  0.79765272  0.89090912  0.99894117    -0.06730
C1121       C  0.75668036  0.90553958  0.98642067    -0.33700
C1122       C  0.71538598  0.88063922  0.98517495     0.35360
H1123       H  0.75547014  0.79469663  0.01807418     0.15730
O1124       O  0.83492429  0.83474396  0.02355333    -0.61200
H1125       H  0.75645215  0.93651142  0.97763324     0.15740
O1126       O  0.67627004  0.89650746  0.97274829    -0.61290
H1127       H  0.66086599  0.91554866  0.98559556     0.42740
H1128       H  0.84851080  0.81252240  0.01205001     0.42690
C1129       C  0.62651107  0.10192318  0.85471329    -0.06370
C1130       C  0.64265185  0.08868607  0.87890348    -0.33800
C1131       C  0.62852653  0.10963897  0.90144975     0.35450
C1132       C  0.59846650  0.14539148  0.90004105    -0.06730
C1133       C  0.58056381  0.15755047  0.87583737    -0.33700
C1134       C  0.59404578  0.13579557  0.85323150     0.35360
H1135       H  0.66764469  0.06264412  0.88030058     0.15730
O1136       O  0.64679594  0.09629667  0.92456556    -0.61200
H1137       H  0.55716919  0.18470176  0.87432268     0.15740
O1138       O  0.57853466  0.15017663  0.82976978    -0.61290
H1139       H  0.54805962  0.13532102  0.82649117     0.42740
H1140       H  0.62476909  0.07392986  0.93041299     0.42690
C1141       C  0.36707444  0.35689353  0.85552041    -0.06370
C1142       C  0.34409726  0.36172894  0.87941800    -0.33800
C1143       C  0.35798167  0.33785875  0.90081703     0.35450
C1144       C  0.39543131  0.30841012  0.89849683    -0.06730
C1145       C  0.41781216  0.30312714  0.87448934    -0.33700
C1146       C  0.40385717  0.32678447  0.85312104     0.35360
H1147       H  0.31573865  0.38467580  0.88165526     0.15730
O1148       O  0.33583072  0.34474447  0.92402756    -0.61200
H1149       H  0.44690112  0.28085797  0.87233661     0.15740
O1150       O  0.42650430  0.32004029  0.83003313    -0.61290
H1151       H  0.40869168  0.29673027  0.82134773     0.42740
H1152       H  0.35329369  0.36861374  0.93234143     0.42690
C1153       C  0.21719165  0.09100701  0.00485656    -0.06370
C1154       C  0.22451812  0.12533029  0.98833027    -0.33800
C1155       C  0.26686269  0.14836330  0.98902816     0.35450
C1156       C  0.30295164  0.13778448  0.00677489    -0.06730
C1157       C  0.29571404  0.10342254  0.02334862    -0.33700
C1158       C  0.25323844  0.08023518  0.02256776     0.35360
H1159       H  0.19753046  0.13412523  0.97441171     0.15730
O1160       O  0.27244233  0.18110609  0.97215648    -0.61200
H1161       H  0.32277958  0.09480237  0.03726119     0.15740
O1162       O  0.24731220  0.04742539  0.03934733    -0.61290
H1163       H  0.23210677  0.06032007  0.05481099     0.42740
H1164       H  0.28714278  0.16811447  0.95657663     0.42690
C1165       C  0.50564667  0.44247279  0.00401912    -0.06370
C1166       C  0.46538524  0.46836818  0.00425628    -0.33800
C1167       C  0.47013179  0.51236901  0.00439554     0.35450
C1168       C  0.51574877  0.53082751  0.00449159    -0.06730
C1169       C  0.55599533  0.50490678  0.00426723    -0.33700
C1170       C  0.55120356  0.46091433  0.00401761     0.35360
H1171       H  0.43021542  0.45453045  0.00353747     0.15730
O1172       O  0.43001682  0.53704450  0.00337308    -0.61200
H1173       H  0.59118879  0.51870198  0.00489637     0.15740
O1174       O  0.59123701  0.43616232  0.00466753    -0.61290
H1175       H  0.60352574  0.43594774  0.98674757     0.42740
H1176       H  0.41722779  0.53734919  0.02118705     0.42690
C1177       C  0.50565461  0.94306342  0.00054431    -0.06370
C1178       C  0.55142933  0.96012606  0.99836828    -0.33800
C1179       C  0.55881950  0.00376029  0.00036205     0.35450
C1180       C  0.51999176  0.03084118  0.00467014    -0.06730
C1181       C  0.47414671  0.01377967  0.00663406    -0.33700
C1182       C  0.46678291  0.97018676  0.00463931     0.35360
H1183       H  0.58167707  0.93949948  0.99534644     0.15730
O1184       O  0.60419915  0.01928386  0.99933366    -0.61200
H1185       H  0.44376289  0.03432486  0.00968166     0.15740
O1186       O  0.42136622  0.95470636  0.00556468    -0.61290
H1187       H  0.41405537  0.95250044  0.02421345     0.42740
H1188       H  0.61105737  0.02217236  0.98067252     0.42690
C1189       C  0.79522941  0.39443605  0.00675327    -0.06370
C1190       C  0.80086426  0.35023229  0.00413136    -0.33800
C1191       C  0.76163376  0.32309776  0.00337586     0.35450
C1192       C  0.71549997  0.33993978  0.00479772    -0.06730
C1193       C  0.70970106  0.38389614  0.00846072    -0.33700
C1194       C  0.74913988  0.41110829  0.00968916     0.35360
H1195       H  0.83593516  0.33658350  0.00183980     0.15730
O1196       O  0.76872055  0.28053828  0.99912259    -0.61200
H1197       H  0.67442421  0.39724958  0.00991197     0.15740
O1198       O  0.74202855  0.45390924  0.01268267    -0.61290
H1199       H  0.73640400  0.46453858  0.99498824     0.42740
H1200       H  0.77517510  0.26866740  0.01642674     0.42690
C1201       C  0.38150583  0.77630006  0.10890016    -0.06370
C1202       C  0.33575508  0.75904200  0.10719476    -0.33800
C1203       C  0.31707649  0.73513588  0.12753275     0.35450
C1204       C  0.34440592  0.72782001  0.15013570    -0.06730
C1205       C  0.38798047  0.74875658  0.15280239    -0.33700
C1206       C  0.40648930  0.77268198  0.13251759     0.35360
H1207       H  0.31642660  0.76017178  0.08906481     0.15730
O1208       O  0.27357012  0.71640062  0.12415336    -0.61200
H1209       H  0.40895329  0.74512182  0.17023099     0.15740
O1210       O  0.45117805  0.78944431  0.13504615    -0.61290
H1211       H  0.47279412  0.76468542  0.13629865     0.42740
H1212       H  0.25018729  0.73843879  0.12930355     0.42690
C1213       C  0.17219766  0.53087653  0.14817408    -0.06370
C1214       C  0.18653928  0.54505860  0.12388409    -0.33800
C1215       C  0.17566491  0.52145741  0.10142431     0.35450
C1216       C  0.14953072  0.48339668  0.10302143    -0.06730
C1217       C  0.14062697  0.46668654  0.12736651    -0.33700
C1218       C  0.15237779  0.48967058  0.14985415     0.35360
H1219       H  0.20324709  0.57577465  0.12206335     0.15730
O1220       O  0.18579545  0.53819365  0.07773763    -0.61200
H1221       H  0.11996694  0.43789362  0.12898404     0.15740
O1222       O  0.14042017  0.47288106  0.17321796    -0.61290
H1223       H  0.16941178  0.45799944  0.17919281     0.42740
H1224       H  0.16080776  0.55972593  0.07457592     0.42690
C1225       C  0.41088332  0.60412111  0.40057530    -0.06370
C1226       C  0.37646284  0.63630121  0.40274474    -0.33800
C1227       C  0.36111078  0.65860777  0.38095916     0.35450
C1228       C  0.38138243  0.65016478  0.35666125    -0.06730
C1229       C  0.41991503  0.62186907  0.35516078    -0.33700
C1230       C  0.43450687  0.59870053  0.37680808     0.35360
H1231       H  0.35837966  0.64182400  0.42090023     0.15730
O1232       O  0.32308930  0.68566525  0.38304887    -0.61200
H1233       H  0.43506738  0.61397328  0.33649970     0.15740
O1234       O  0.46953029  0.56880338  0.37397067    -0.61290
H1235       H  0.49927141  0.58348979  0.37911853     0.42740
H1236       H  0.29531634  0.66730499  0.38638449     0.42690
C1237       C  0.14372307  0.62386141  0.35586413    -0.06370
C1238       C  0.09758539  0.61516060  0.36399237    -0.33800
C1239       C  0.07819595  0.63688071  0.38515298     0.35450
C1240       C  0.10465051  0.66876587  0.39818246    -0.06730
C1241       C  0.15117073  0.67700481  0.39031110    -0.33700
C1242       C  0.17059866  0.65509415  0.36911322     0.35360
H1243       H  0.07665657  0.59112198  0.35405284     0.15730
O1244       O  0.03354931  0.62611158  0.39318797    -0.61200
H1245       H  0.17196147  0.70124736  0.40013857     0.15740
O1246       O  0.21516169  0.66560792  0.36087322    -0.61290
H1247       H  0.21014069  0.68749780  0.34755644     0.42740
H1248       H  0.03858771  0.60462278  0.40674794     0.42690
C1249       C  0.33480283  0.21372106  0.14625723    -0.06370
C1250       C  0.35209791  0.25547348  0.14928252    -0.33800
C1251       C  0.36686730  0.27884203  0.12798502     0.35450
C1252       C  0.36382985  0.26101203  0.10310083    -0.06730
C1253       C  0.34069609  0.22173145  0.09971387    -0.33700
C1254       C  0.32671356  0.19781992  0.12106965     0.35360
H1255       H  0.35762766  0.26906186  0.16839321     0.15730
O1256       O  0.38967664  0.31674780  0.13200158    -0.61200
H1257       H  0.33887128  0.20716298  0.08063816     0.15740
O1258       O  0.30869158  0.15787618  0.11707080    -0.61290
H1259       H  0.33678877  0.13918619  0.11495157     0.42740
H1260       H  0.36460934  0.33863989  0.13028257     0.42690
C1261       C  0.14579179  0.04472794  0.15061307    -0.06370
C1262       C  0.17589706  0.03114038  0.13050797    -0.33800
C1263       C  0.15861138  0.00811486  0.10930527     0.35450
C1264       C  0.10994372  0.99869010  0.10737267    -0.06730
C1265       C  0.07952535  0.01220781  0.12740393    -0.33700
C1266       C  0.09708258  0.03511354  0.14887902     0.35360
H1267       H  0.21359659  0.03772251  0.13127060     0.15730
O1268       O  0.18987310  0.99517733  0.09055430    -0.61200
H1269       H  0.04186484  0.00551743  0.12630912     0.15740
O1270       O  0.06641019  0.04750994  0.16802450    -0.61290
H1271       H  0.05443578  0.07568284  0.16272612     0.42740
H1272       H  0.20090264  0.96675161  0.09595497     0.42690
C1273       C  0.25459835  0.83207057  0.26040555    -0.06370
C1274       C  0.29682634  0.85548350  0.26247872    -0.33800
C1275       C  0.29601566  0.90001042  0.26239578     0.35450
C1276       C  0.25241694  0.92195571  0.26118542    -0.06730
C1277       C  0.21010770  0.89860256  0.26098679    -0.33700
C1278       C  0.21096558  0.85412050  0.26009565     0.35360
H1279       H  0.33076060  0.83930803  0.26284493     0.15730
O1280       O  0.33807319  0.92182534  0.26353111    -0.61200
H1281       H  0.17623052  0.91482261  0.26006335     0.15740
O1282       O  0.16885365  0.83251159  0.25877749    -0.61290
H1283       H  0.15881675  0.83371443  0.24040867     0.42740
H1284       H  0.35059587  0.92093885  0.24566197     0.42690
C1285       C  0.26454580  0.33197675  0.23205649    -0.06370
C1286       C  0.21754553  0.34680403  0.23079486    -0.33800
C1287       C  0.20784518  0.39022053  0.23060545     0.35450
C1288       C  0.24561895  0.41915477  0.23216358    -0.06730
C1289       C  0.29249607  0.40424859  0.22998433    -0.33700
C1290       C  0.30217516  0.36079426  0.22982974     0.35360
H1291       H  0.18818969  0.32478075  0.23202684     0.15730
O1292       O  0.16167373  0.40373925  0.23227525    -0.61200
H1293       H  0.32194028  0.42632416  0.23050517     0.15740
O1294       O  0.34844477  0.34720104  0.23010658    -0.61290
H1295       H  0.35852677  0.34888414  0.24847925     0.42740
H1296       H  0.14940943  0.40276744  0.21429164     0.42690
C1297       C  0.37708050  0.13614556  0.35491854    -0.06370
C1298       C  0.39877763  0.09631903  0.35233352    -0.33800
C1299       C  0.41001365  0.07244202  0.37414728     0.35450
C1300       C  0.40084258  0.08892361  0.39917365    -0.06730
C1301       C  0.38089263  0.12966208  0.40163508    -0.33700
C1302       C  0.36876470  0.15304847  0.37976385     0.35360
H1303       H  0.40469833  0.08261692  0.33330193     0.15730
O1304       O  0.42885188  0.03266663  0.37064201    -0.61200
H1305       H  0.37374521  0.14319687  0.42056699     0.15740
O1306       O  0.34795898  0.19211274  0.38286105    -0.61290
H1307       H  0.37460853  0.21261783  0.38283114     0.42740
H1308       H  0.40110667  0.01361422  0.36840537     0.42690
C1309       C  0.14852023  0.10542100  0.36309127    -0.06370
C1310       C  0.10000890  0.11492029  0.36198348    -0.33800
C1311       C  0.07834246  0.13842248  0.38189141     0.35450
C1312       C  0.10536552  0.15277711  0.40344040    -0.06730
C1313       C  0.15260775  0.13915095  0.40571690    -0.33700
C1314       C  0.17420132  0.11583743  0.38575640     0.35360
H1315       H  0.07996748  0.10808715  0.34449554     0.15730
O1316       O  0.03151605  0.14942067  0.37915366    -0.61200
H1317       H  0.17373073  0.14835363  0.42240977     0.15740
O1318       O  0.22162994  0.10617006  0.38759503    -0.61290
H1319       H  0.23865467  0.13311488  0.38446259     0.42740
H1320       H  0.01349396  0.12547671  0.38648976     0.42690
C1321       C  0.65612565  0.80415250  0.14701711    -0.06370
C1322       C  0.60834118  0.80969718  0.14032011    -0.33800
C1323       C  0.58889382  0.78788618  0.11900188     0.35450
C1324       C  0.61687144  0.75897057  0.10461587    -0.06730
C1325       C  0.66464051  0.75371540  0.11115807    -0.33700
C1326       C  0.68429245  0.77573718  0.13221101     0.35360
H1327       H  0.58637775  0.83164778  0.15125152     0.15730
O1328       O  0.54298182  0.79616864  0.11183583    -0.61200
H1329       H  0.68663699  0.73178667  0.10022147     0.15740
O1330       O  0.73091489  0.76834592  0.13846388    -0.61290
H1331       H  0.73021872  0.74493753  0.15105561     0.42740
H1332       H  0.54514518  0.81890107  0.09885180     0.42690
C1333       C  0.84838469  0.98009259  0.15092332    -0.06370
C1334       C  0.82170003  0.97454806  0.12817767    -0.33800
C1335       C  0.83228341  0.99798728  0.10610492     0.35450
C1336       C  0.87075266  0.02651444  0.10645270    -0.06730
C1337       C  0.89349353  0.03564975  0.12993161    -0.33700
C1338       C  0.88292901  0.01261780  0.15202470     0.35360
H1339       H  0.79434218  0.95048670  0.12707169     0.15730
O1340       O  0.80967728  0.98809772  0.08329082    -0.61200
H1341       H  0.92387967  0.05671024  0.13036907     0.15740
O1342       O  0.90971524  0.01970702  0.17386850    -0.61290
H1343       H  0.93832997  0.00165735  0.17170763     0.42740
H1344       H  0.78524598  0.01046018  0.08118999     0.42690
C1345       C  0.96475812  0.77789927  0.26020578    -0.06370
C1346       C  0.00956859  0.79316674  0.26759766    -0.33800
C1347       C  0.04842042  0.76554136  0.26896494     0.35450
C1348       C  0.04264029  0.72207333  0.26319735    -0.06730
C1349       C  0.99711884  0.70611461  0.25855798    -0.33700
C1350       C  0.95838089  0.73371553  0.25675070     0.35360
H1351       H  0.01516959  0.82682117  0.27075543     0.15730
O1352       O  0.09241818  0.78161983  0.27470364    -0.61200
H1353       H  0.99208232  0.67269345  0.25424229     0.15740
O1354       O  0.91481382  0.71727012  0.25045137    -0.61290
H1355       H  0.91491262  0.71490134  0.23132935     0.42740
H1356       H  0.09651280  0.77758490  0.29354606     0.42690
C1357       C  0.55924963  0.98401562  0.25253206    -0.06370
C1358       C  0.55221963  0.01909868  0.26918560    -0.33800
C1359       C  0.51027947  0.04301301  0.26822305     0.35450
C1360       C  0.47450284  0.03242258  0.25016600    -0.06730
C1361       C  0.48153156  0.99733824  0.23353309    -0.33700
C1362       C  0.52345414  0.97344627  0.23448295     0.35360
H1363       H  0.57906005  0.02775641  0.28335023     0.15730
O1364       O  0.50456187  0.07634077  0.28522797    -0.61200
H1365       H  0.45467799  0.98865131  0.21938201     0.15740
O1366       O  0.52906463  0.94006765  0.21750784    -0.61290
H1367       H  0.54487581  0.95224815  0.20223633     0.42740
H1368       H  0.48829480  0.06419337  0.30036953     0.42690
C1369       C  0.63503753  0.85998713  0.35579826    -0.06370
C1370       C  0.65219449  0.85429694  0.38100400    -0.33800
C1371       C  0.63432246  0.87841997  0.40176240     0.35450
C1372       C  0.59854239  0.90890225  0.39749726    -0.06730
C1373       C  0.57888302  0.91223074  0.37261823    -0.33700
C1374       C  0.59723591  0.88854049  0.35182561     0.35360
H1375       H  0.68226723  0.83355627  0.38428306     0.15730
O1376       O  0.65219145  0.87194397  0.42608346    -0.61200
H1377       H  0.55084350  0.93496379  0.36898078     0.15740
O1378       O  0.58124045  0.89662971  0.32728440    -0.61290
H1379       H  0.59976821  0.92145919  0.32149943     0.42740
H1380       H  0.68197632  0.88862153  0.42696943     0.42690
C1381       C  0.88004890  0.88684491  0.35695957    -0.06370
C1382       C  0.85654137  0.89458887  0.38034061    -0.33800
C1383       C  0.86814545  0.87203002  0.40240009     0.35450
C1384       C  0.90427130  0.84113255  0.40148160    -0.06730
C1385       C  0.92914499  0.83430866  0.37834025    -0.33700
C1386       C  0.91754951  0.85722064  0.35616026     0.35360
H1387       H  0.82762094  0.91723823  0.38134738     0.15730
O1388       O  0.84240222  0.87929534  0.42444576    -0.61200
H1389       H  0.95712466  0.81075180  0.37733191     0.15740
O1390       O  0.94089795  0.84833636  0.33354321    -0.61290
H1391       H  0.96890958  0.86733486  0.33372393     0.42740
H1392       H  0.81490110  0.85976801  0.42312212     0.42690
C1393       C  0.63066677  0.25320891  0.10424599    -0.06370
C1394       C  0.64608786  0.23182941  0.12615858    -0.33800
C1395       C  0.66396748  0.25449513  0.14737168     0.35450
C1396       C  0.66573715  0.29923064  0.14687810    -0.06730
C1397       C  0.65244695  0.32043581  0.12434942    -0.33700
C1398       C  0.63456343  0.29759802  0.10309351     0.35360
H1399       H  0.64339334  0.19759847  0.12699742     0.15730
O1400       O  0.67839009  0.23266266  0.16877377    -0.61200
H1401       H  0.65347497  0.35474663  0.12372788     0.15740
O1402       O  0.61931661  0.31893762  0.08166869    -0.61290
H1403       H  0.58509583  0.32448253  0.08461300     0.42740
H1404       H  0.71321658  0.22937490  0.16690041     0.42690
C1405       C  0.87077908  0.45035301  0.14978907    -0.06370
C1406       C  0.84701489  0.44547804  0.12602337    -0.33800
C1407       C  0.86260106  0.46634647  0.10401197     0.35450
C1408       C  0.90251552  0.49319048  0.10549794    -0.06730
C1409       C  0.92728486  0.49698601  0.12907281    -0.33700
C1410       C  0.91158144  0.47603538  0.15114981     0.35360
H1411       H  0.81555696  0.42584099  0.12456472     0.15730
O1412       O  0.83830880  0.46026787  0.08122946    -0.61200
H1413       H  0.95840453  0.51701928  0.13057313     0.15740
O1414       O  0.93530741  0.48227524  0.17408089    -0.61290
H1415       H  0.92065439  0.50791707  0.18199835     0.42740
H1416       H  0.85366138  0.43541548  0.07278286     0.42690
C1417       C  0.05304182  0.22984929  0.25122373    -0.06370
C1418       C  0.00943276  0.20900943  0.25372717    -0.33800
C1419       C  0.96661745  0.23181380  0.25464602     0.35450
C1420       C  0.96621511  0.27634620  0.25184443    -0.06730
C1421       C  0.00984626  0.29703071  0.24829045    -0.33700
C1422       C  0.05293977  0.27433482  0.24847275     0.35360
H1423       H  0.00856790  0.17494202  0.25611305     0.15730
O1424       O  0.92532446  0.20999328  0.25833666    -0.61200
H1425       H  0.01080477  0.33114085  0.24618844     0.15740
O1426       O  0.09472859  0.29591119  0.24548625    -0.61290
H1427       H  0.10251379  0.30763685  0.26287015     0.42740
H1428       H  0.92336351  0.20582370  0.27725563     0.42690
C1429       C  0.77052504  0.58681457  0.25881492    -0.06370
C1430       C  0.80210539  0.60838995  0.24301164    -0.33800
C1431       C  0.79847919  0.65241253  0.23973407     0.35450
C1432       C  0.76299979  0.67598394  0.25292702    -0.06730
C1433       C  0.73168043  0.65413790  0.26912513    -0.33700
C1434       C  0.73491785  0.60987558  0.27184016     0.35360
H1435       H  0.82823085  0.59064520  0.23198070     0.15730
O1436       O  0.82723215  0.67154228  0.22199325    -0.61200
H1437       H  0.70389410  0.67121732  0.27924856     0.15740
O1438       O  0.70219009  0.58926708  0.28660148    -0.61290
H1439       H  0.71678472  0.58761856  0.30403004     0.42740
H1440       H  0.85985036  0.66102973  0.22527246     0.42690
C1441       C  0.76372848  0.08646082  0.23703039    -0.06370
C1442       C  0.80115015  0.11387958  0.23148488    -0.33800
C1443       C  0.79317862  0.15757801  0.23055908     0.35450
C1444       C  0.74734003  0.17405380  0.23488778    -0.06730
C1445       C  0.70894133  0.14623584  0.23662060    -0.33700
C1446       C  0.71685839  0.10252327  0.23769576     0.35360
H1447       H  0.83716788  0.10199685  0.23016081     0.15730
O1448       O  0.83089844  0.18419604  0.22704965    -0.61200
H1449       H  0.67337279  0.15842921  0.23954331     0.15740
O1450       O  0.67888951  0.07617156  0.24142063    -0.61290
H1451       H  0.67078163  0.06477693  0.22400412     0.42740
H1452       H  0.84559000  0.18721642  0.24438102     0.42690
C1453       C  0.45718807  0.52498688  0.24778915    -0.06370
C1454       C  0.45935033  0.48541978  0.26007434    -0.33800
C1455       C  0.50122175  0.46141102  0.26048177     0.35450
C1456       C  0.54242131  0.47667347  0.24848927    -0.06730
C1457       C  0.54019874  0.51605976  0.23598877    -0.33700
C1458       C  0.49824539  0.54012563  0.23561369     0.35360
H1459       H  0.42845845  0.47293628  0.26972106     0.15730
O1460       O  0.50149709  0.42347161  0.27310819    -0.61200
H1461       H  0.57117023  0.52844028  0.22637085     0.15740
O1462       O  0.49778729  0.57806411  0.22300159    -0.61290
H1463       H  0.51031736  0.59909618  0.23570954     0.42740
H1464       H  0.48897925  0.40245209  0.26038655     0.42690
C1465       C  0.64666910  0.38484144  0.35521470    -0.06370
C1466       C  0.60922451  0.41350165  0.35141043    -0.33800
C1467       C  0.59189556  0.43828233  0.37185839     0.35450
C1468       C  0.61150254  0.43434319  0.39682240    -0.06730
C1469       C  0.64961080  0.40631387  0.40058096    -0.33700
C1470       C  0.66704784  0.38150645  0.38005040     0.35360
H1471       H  0.59356696  0.41719588  0.33241157     0.15730
O1472       O  0.55519974  0.46584328  0.36726052    -0.61200
H1473       H  0.66471281  0.40229659  0.41967868     0.15740
O1474       O  0.70338420  0.35357396  0.38462612    -0.61290
H1475       H  0.68766396  0.32643360  0.38883725     0.42740
H1476       H  0.57054478  0.49344749  0.36378648     0.42690
C1477       C  0.89090424  0.39771534  0.35933778    -0.06370
C1478       C  0.92432265  0.36474674  0.35702483    -0.33800
C1479       C  0.93697384  0.34022233  0.37843599     0.35450
C1480       C  0.91718613  0.34940656  0.40284580    -0.06730
C1481       C  0.88837149  0.38571317  0.40558808    -0.33700
C1482       C  0.87488559  0.40944335  0.38406123     0.35360
H1483       H  0.93613830  0.35459540  0.33802220     0.15730
O1484       O  0.96664448  0.30612942  0.37493835    -0.61200
H1485       H  0.87317600  0.39397574  0.42416552     0.15740
O1486       O  0.84129654  0.44063301  0.38692895    -0.61290
H1487       H  0.85954153  0.46739155  0.38863271     0.42740
H1488       H  0.94610551  0.28295972  0.36815756     0.42690
loop_ 
_geom_bond_atom_site_label_1 
_geom_bond_atom_site_label_2 
_geom_bond_distance 
_geom_bond_site_symmetry_2 
_ccdc_geom_bond_type 
N1            N2   1.330       .  A
N1            N7   1.316       .  A
N1          Mn30   2.241       .  S
N2            C9   1.362       .  A
N3            N5   1.318       .  A
N3            N4   1.322       .  A
N3          Mn19   2.220       .  S
N4           C10   1.354       .  A
N5            N6   1.326       .  A
N5          Mn30   2.232       .  S
N6           C10   1.360       .  A
N7            N8   1.310       .  A
N7          Mn19   2.155       .  S
N8            C9   1.339       .  A
C9         C1477   1.470       .  S
C10        C1420   1.498       .  S
N11          N17   1.311       .  A
N11          N12   1.325       .  A
N11         Mn41   2.209       .  S
N12          C20   1.356       .  A
N13          N14   1.320       .  A
N13          N15   1.315       .  A
N13         Mn19   2.202       .  S
N14          C21   1.351       .  A
N15          N16   1.320       .  A
N15         Mn41   2.188       .  S
N16          C21   1.353       .  A
N17          N18   1.314       .  A
N17         Mn19   2.163       .  S
N18          C20   1.347       .  A
Mn19        Cl43   2.505       .  S
C20        C1444   1.470       .  S
C21        C1465   1.479       .  S
N22          N23   1.325       .  A
N22          N28   1.317       .  A
N22         Mn30   2.223       .  S
N23          C31   1.357       .  A
N24          N26   1.321       .  A
N24          N25   1.318       .  A
N24         Mn42   2.203       .  S
N25          C32   1.347       .  A
N26          N27   1.326       .  A
N26         Mn30   2.246       .  S
N27          C32   1.359       .  A
N28          N29   1.315       .  A
N28         Mn42   2.179       .  S
N29          C31   1.346       .  A
Mn30        Cl43   2.582       .  S
C31        C1405   1.478       .  S
C32        C1429   1.477       .  S
N33          N34   1.324       .  A
N33          N39   1.313       .  A
N33         Mn41   2.215       .  S
N34          C44   1.359       .  A
N35          N36   1.324       .  A
N35          N37   1.314       .  A
N35         Mn42   2.217       .  S
N36          C45   1.358       .  A
N37          N38   1.313       .  A
N37         Mn41   2.168       .  S
N38          C45   1.346       .  A
N39          N40   1.318       .  A
N39         Mn42   2.186       .  S
N40          C44   1.350       .  A
Mn41        Cl43   2.577       .  S
Mn42        Cl43   2.511       .  S
C44        C1456   1.489       .  S
C45        C1396   1.469       .  S
N46          N47   1.325   1_565  A
N46          N52   1.312       .  A
N46         Mn75   2.215       .  S
N47          C54   1.358       .  A
N48          N50   1.312       .  A
N48          N49   1.315       .  A
N48         Mn64   2.183       .  S
N49          C55   1.349       .  A
N50          N51   1.322       .  A
N50         Mn75   2.184       .  S
N51          C55   1.354       .  A
N52          N53   1.313   1_565  A
N52         Mn64   2.155       .  S
N53          C54   1.345       .  A
C54        C1441   1.473       .  S
C55        C1381   1.472       .  S
N56          N62   1.316       .  A
N56          N57   1.330       .  A
N56         Mn86   2.249       .  S
N57          C65   1.364       .  A
N58          N59   1.319       .  A
N58          N60   1.317       .  A
N58         Mn64   2.205       .  S
N59          C66   1.351       .  A
N60          N61   1.323       .  A
N60         Mn86   2.214       .  S
N61          C66   1.357       .  A
N62          N63   1.309       .  A
N62         Mn64   2.149       .  S
N63          C65   1.337       .  A
Mn64        Cl88   2.495       .  S
C65        C1369   1.469       .  S
C66        C1357   1.485       .  S
N67          N68   1.325       .  A
N67          N73   1.313       .  A
N67         Mn75   2.206       .  S
N68          C76   1.358       .  A
N69          N71   1.314       .  A
N69          N70   1.328       .  A
N69         Mn87   2.236       .  S
N70          C77   1.362       .  A
N71          N72   1.313       .  A
N71         Mn75   2.163       .  S
N72          C77   1.344       .  A
N73          N74   1.315       .  A
N73         Mn87   2.183       .  S
N74          C76   1.348       .  A
Mn75        Cl88   2.574       .  S
C76        C1345   1.481       .  S
C77        C1333   1.483       .  S
N78          N79   1.326       .  A
N78          N84   1.318       .  A
N78         Mn86   2.236       .  S
N79          C89   1.358       .  A
N80          N81   1.318       .  A
N80          N82   1.319       .  A
N80         Mn87   2.213       .  S
N81          C90   1.351       .  A
N82          N83   1.327       .  A
N82         Mn86   2.238       .  S
N83          C90   1.361       .  A
N84          N85   1.314       .  A
N84         Mn87   2.167       .  S
N85          C89   1.344       .  A
Mn86        Cl88   2.583       .  S
Mn87        Cl88   2.504       .  S
C89        C1321   1.479       .  S
C90        C1432   1.496       .  S
N91          N92   1.322       .  A
N91          N97   1.318       .  A
N91        Mn120   2.217       .  S
N92          C99   1.353       .  A
N93          N95   1.314       .  A
N93          N94   1.330       .  A
N93        Mn109   2.246       .  S
N94         C100   1.365       .  A
N95          N96   1.308       .  A
N95        Mn120   2.146       .  S
N96         C100   1.339       .  A
N97          N98   1.325       .  A
N97        Mn109   2.229       .  S
N98          C99   1.359       .  A
C99        C1417   1.491       .  S
C100       C1309   1.471       .  S
N101        N107   1.321       .  A
N101        N102   1.320   1_545  A
N101       Mn131   2.218       .  S
N102        C110   1.352       .  A
N103        N104   1.328       .  A
N103        N105   1.317       .  A
N103       Mn109   2.232       .  S
N104        C111   1.360       .  A
N105        N106   1.312       .  A
N105       Mn131   2.172       .  S
N106        C111   1.345       .  A
N107        N108   1.324   1_545  A
N107       Mn109   2.231       .  S
N108        C110   1.358       .  A
Mn109      Cl133   2.588       .  S
C110       C1276   1.484       .  S
C111       C1261   1.485       .  S
N112        N113   1.319       .  A
N112        N118   1.314       .  A
N112       Mn120   2.201       .  S
N113        C121   1.350       .  A
N114        N116   1.311       .  A
N114        N115   1.323       .  A
N114       Mn132   2.207       .  S
N115        C122   1.356       .  A
N116        N117   1.313       .  A
N116       Mn120   2.152       .  S
N117        C122   1.346       .  A
N118        N119   1.322       .  A
N118       Mn132   2.196       .  S
N119        C121   1.355       .  A
Mn120      Cl133   2.504       .  S
C121       C1297   1.474       .  S
C122       C1285   1.468       .  S
N123        N124   1.328       .  A
N123        N129   1.315       .  A
N123       Mn131   2.240       .  S
N124        C134   1.363       .  A
N125        N126   1.324       .  A
N125        N127   1.312       .  A
N125       Mn132   2.207       .  S
N126        C135   1.357       .  A
N127        N128   1.319       .  A
N127       Mn131   2.192       .  S
N128        C135   1.351       .  A
N129        N130   1.315       .  A
N129       Mn132   2.175       .  S
N130        C134   1.347       .  A
Mn131      Cl133   2.511       .  S
Mn132      Cl133   2.569       .  S
C134       C1249   1.489       .  S
C135       C1360   1.485       .  S
N136        N137   1.316       .  A
N136        N142   1.319       .  A
N136       Mn165   2.195       .  S
N137        C144   1.348       .  A
N138        N140   1.315       .  A
N138        N139   1.332       .  A
N138       Mn154   2.255       .  S
N139        C145   1.364       .  A
N140        N141   1.310       .  A
N140       Mn165   2.145       .  S
N141        C145   1.338       .  A
N142        N143   1.327       .  A
N142       Mn154   2.238       .  S
N143        C144   1.362       .  A
C144       C1453   1.490       .  S
C145       C1228   1.473       .  S
N146        N152   1.321       .  A
N146        N147   1.320       .  A
N146       Mn176   2.220       .  S
N147        C155   1.352       .  A
N148        N149   1.329       .  A
N148        N150   1.320       .  A
N148       Mn154   2.253       .  S
N149        C156   1.362       .  A
N150        N151   1.318       .  A
N150       Mn176   2.173       .  S
N151        C156   1.344       .  A
N152        N153   1.324       .  A
N152       Mn154   2.227       .  S
N153        C155   1.358       .  A
Mn154      Cl178   2.590       .  S
C155       C1273   1.487       .  S
C156       C1204   1.496       .  S
N157        N158   1.319       .  A
N157        N163   1.314       .  A
N157       Mn165   2.193       .  S
N158        C166   1.349       .  A
N159        N161   1.310       .  A
N159        N160   1.323       .  A
N159       Mn177   2.197       .  S
N160        C167   1.355       .  A
N161        N162   1.314       .  A
N161       Mn165   2.163       .  S
N162        C167   1.347       .  A
N163        N164   1.321       .  A
N163       Mn177   2.194       .  S
N164        C166   1.353       .  A
Mn165      Cl178   2.491       .  S
C166       C1237   1.473       .  S
C167       C1288   1.469       .  S
N168        N169   1.329       .  A
N168        N174   1.316       .  A
N168       Mn176   2.249       .  S
N169        C179   1.364       .  A
N170        N171   1.324       .  A
N170        N172   1.312       .  A
N170       Mn177   2.195       .  S
N171        C180   1.356       .  A
N172        N173   1.316       .  A
N172       Mn176   2.186       .  S
N173        C180   1.348       .  A
N174        N175   1.315       .  A
N174       Mn177   2.172       .  S
N175        C179   1.345       .  A
Mn176      Cl178   2.500       .  S
Mn177      Cl178   2.587       .  S
C179       C1213   1.492       .  S
C180       C1348   1.471       .  S
N181        N182   1.318       .  A
N181        N187   1.315       .  A
N181       Mn210   2.178       .  S
N182        C189   1.348       .  A
N183        N185   1.311       .  A
N183        N184   1.312       .  A
N183       Mn199   2.153       .  S
N184        C190   1.345       .  A
N185        N186   1.321       .  A
N185       Mn210   2.197       .  S
N186        C190   1.356       .  A
N187        N188   1.319       .  A
N187       Mn199   2.200       .  S
N188        C189   1.351       .  A
C189       C1393   1.457       .  S
C190       C1180   1.464       .  S
N191        N197   1.317       .  A
N191        N192   1.320   1_554  A
N191       Mn221   2.200       .  S
N192        C200   1.355   1_556  A
N193        N194   1.311       .  A
N193        N195   1.317       .  A
N193       Mn199   2.158       .  S
N194        C201   1.339       .  A
N195        N196   1.330       .  A
N195       Mn221   2.235       .  S
N196        C201   1.359       .  A
N197        N198   1.321       .  A
N197       Mn199   2.221       .  S
N198        C200   1.354       .  A
Mn199      Cl223   2.497       .  S
C200       C1156   1.485       .  S
C201       C1252   1.471       .  S
N202        N203   1.315       .  A
N202        N208   1.314       .  A
N202       Mn210   2.183   1_556  S
N203        C211   1.351       .  A
N204        N206   1.311       .  A
N204        N205   1.321       .  A
N204       Mn222   2.196       .  S
N205        C212   1.352   1_556  A
N206        N207   1.322   1_556  A
N206       Mn210   2.200   1_556  S
N207        C212   1.355       .  A
N208        N209   1.322       .  A
N208       Mn222   2.204       .  S
N209        C211   1.356       .  A
Mn210      Cl223   2.569       .  S
C211       C1132   1.479       .  S
C212       C1192   1.480       .  S
N213        N214   1.322       .  A
N213        N219   1.319   1_554  A
N213       Mn221   2.215       .  S
N214        C224   1.357       .  A
N215        N216   1.315       .  A
N215        N217   1.317       .  A
N215       Mn222   2.175       .  S
N216        C225   1.346       .  A
N217        N218   1.325       .  A
N217       Mn221   2.221   1_556  S
N218        C225   1.356       .  A
N219        N220   1.311       .  A
N219       Mn222   2.174       .  S
N220        C224   1.343   1_556  A
Mn221      Cl223   2.576       .  S
Mn222      Cl223   2.507   1_556  S
C224       C1165   1.462       .  S
C225       C1144   1.479       .  S
N226        N227   1.322       .  A
N226        N232   1.315       .  A
N226       Mn255   2.198       .  S
N227        C234   1.355       .  A
N228        N230   1.310       .  A
N228        N229   1.310       .  A
N228       Mn244   2.134       .  S
N229        C235   1.342       .  A
N230        N231   1.323   1_554  A
N230       Mn255   2.208       .  S
N231        C235   1.358   1_556  A
N232        N233   1.318       .  A
N232       Mn244   2.196       .  S
N233        C234   1.348       .  A
C234       C1324   1.475       .  S
C235       C1168   1.463       .  S
N236        N242   1.318       .  A
N236        N237   1.322   1_554  A
N236       Mn266   2.209       .  S
N237        C245   1.356   1_556  A
N238        N239   1.307       .  A
N238        N240   1.311       .  A
N238       Mn244   2.124       .  S
N239        C246   1.334       .  A
N240        N241   1.336       .  A
N240       Mn266   2.271       .  S
N241        C246   1.371       .  A
N242        N243   1.322       .  A
N242       Mn244   2.230       .  S
N243        C245   1.356       .  A
Mn244      Cl268   2.489       .  S
C245       C1105   1.490   1_554  S
C246       C1201   1.481       .  S
N247        N248   1.317       .  A
N247        N253   1.316       .  A
N247       Mn255   2.188   1_556  S
N248        C256   1.349       .  A
N249        N251   1.310       .  A
N249        N250   1.318       .  A
N249       Mn267   2.178       .  S
N250        C257   1.348       .  A
N251        N252   1.326   1_556  A
N251       Mn255   2.217   1_556  S
N252        C257   1.362   1_554  A
N253        N254   1.326       .  A
N253       Mn267   2.233       .  S
N254        C256   1.361       .  A
Mn255      Cl268   2.587       .  S
C256       C1081   1.486       .  S
C257       C1117   1.491       .  S
N258        N259   1.320   1_556  A
N258        N264   1.321       .  A
N258       Mn266   2.202   1_556  S
N259        C269   1.355   1_554  A
N260        N261   1.317       .  A
N260        N262   1.321       .  A
N260       Mn267   2.173       .  S
N261        C270   1.343       .  A
N262        N263   1.329       .  A
N262       Mn266   2.248   1_556  S
N263        C270   1.359       .  A
N264        N265   1.314       .  A
N264       Mn267   2.199       .  S
N265        C269   1.347       .  A
Mn266      Cl268   2.588       .  S
Mn267      Cl268   2.493   1_556  S
C269       C1177   1.464   1_556  S
C270       C1093   1.493       .  S
N271        N272   1.320       .  A
N271        N277   1.313       .  A
N271       Mn300   2.199       .  S
N272        C279   1.355       .  A
N273        N275   1.311       .  A
N273        N274   1.315   1_455  A
N273       Mn289   2.163   1_455  S
N274        C280   1.347   1_654  A
N275        N276   1.325   1_554  A
N275       Mn300   2.211       .  S
N276        C280   1.358       .  A
N277        N278   1.320       .  A
N277       Mn289   2.189   1_455  S
N278        C279   1.351       .  A
C279       C1264   1.483       .  S
C280       C1057   1.475       .  S
N281        N287   1.318       .  A
N281        N282   1.329   1_554  A
N281       Mn311   2.247   1_565  S
N282        C290   1.365   1_556  A
N283        N284   1.309       .  A
N283        N285   1.314   1_565  A
N283       Mn289   2.147       .  S
N284        C291   1.339   1_565  A
N285        N286   1.329       .  A
N285       Mn311   2.227       .  S
N286        C291   1.360       .  A
N287        N288   1.314       .  A
N287       Mn289   2.187       .  S
N288        C290   1.345       .  A
Mn289      Cl313   2.496   1_655  S
C290       C1120   1.493   1_554  S
C291       C1336   1.462       .  S
N292        N293   1.314       .  A
N292        N298   1.317       .  A
N292       Mn300   2.185   1_556  S
N293        C301   1.348       .  A
N294        N296   1.312   1_556  A
N294        N295   1.318       .  A
N294       Mn312   2.190       .  S
N295        C302   1.351   1_556  A
N296        N297   1.324       .  A
N296       Mn300   2.201   1_545  S
N297        C302   1.357       .  A
N298        N299   1.325       .  A
N298       Mn312   2.223   1_565  S
N299        C301   1.357       .  A
Mn300      Cl313   2.574       .  S
C301       C1048   1.472       .  S
C302       C1153   1.483       .  S
N303        N304   1.323       .  A
N303        N309   1.320   1_654  A
N303       Mn311   2.222       .  S
N304        C314   1.357       .  A
N305        N306   1.317       .  A
N305        N307   1.320       .  A
N305       Mn312   2.179   1_655  S
N306        C315   1.344       .  A
N307        N308   1.327       .  A
N307       Mn311   2.233   1_556  S
N308        C315   1.359       .  A
N309        N310   1.317       .  A
N309       Mn312   2.204       .  S
N310        C314   1.350   1_456  A
Mn311      Cl313   2.589   1_645  S
Mn312      Cl313   2.506   1_546  S
C314       C1069   1.477       .  S
C315       C1033   1.489       .  S
N316        N317   1.320       .  A
N316        N322   1.315       .  A
N316       Mn345   2.194       .  S
N317        C324   1.353       .  A
N318        N320   1.311   1_455  A
N318        N319   1.313       .  A
N318       Mn334   2.154       .  S
N319        C325   1.345   1_454  A
N320        N321   1.326   1_554  A
N320       Mn345   2.221       .  S
N321        C325   1.360       .  A
N322        N323   1.320       .  A
N322       Mn334   2.197   1_655  S
N323        C324   1.350       .  A
C324       C1408   1.481       .  S
C325       C1060   1.476       .  S
N326        N332   1.319   1_556  A
N326        N327   1.324       .  A
N326       Mn356   2.219   1_556  S
N327        C335   1.357       .  A
N328        N329   1.309       .  A
N328        N330   1.314       .  A
N328       Mn334   2.146       .  S
N329        C336   1.338       .  A
N330        N331   1.331       .  A
N330       Mn356   2.237       .  S
N331        C336   1.362       .  A
N332        N333   1.320       .  A
N332       Mn334   2.217       .  S
N333        C335   1.352   1_554  A
Mn334      Cl358   2.493       .  S
C335       C1108   1.481       .  S
C336       C1216   1.470       .  S
N337        N338   1.314       .  A
N337        N343   1.316       .  A
N337       Mn345   2.177   1_556  S
N338        C346   1.347       .  A
N339        N341   1.311   1_556  A
N339        N340   1.315       .  A
N339       Mn357   2.175       .  S
N340        C347   1.347   1_556  A
N341        N342   1.328       .  A
N341       Mn345   2.219       .  S
N342        C347   1.361       .  A
N343        N344   1.327       .  A
N343       Mn357   2.242       .  S
N344        C346   1.362       .  A
Mn345      Cl358   2.578   1_655  S
C346       C1009   1.486       .  S
C347       C1189   1.485       .  S
N348        N349   1.323       .  A
N348        N354   1.320   1_454  A
N348       Mn356   2.219       .  S
N349        C359   1.357       .  A
N350        N351   1.317       .  A
N350        N352   1.320       .  A
N350       Mn357   2.175   1_455  S
N351        C360   1.345       .  A
N352        N353   1.325       .  A
N352       Mn356   2.230   1_556  S
N353        C360   1.357       .  A
N354        N355   1.317       .  A
N354       Mn357   2.206       .  S
N355        C359   1.349   1_656  A
Mn356      Cl358   2.587       .  S
Mn357      Cl358   2.504   1_656  S
C359       C1072   1.478       .  S
C360       C1024   1.488       .  S
N361        N362   1.330       .  A
N361        N367   1.313       .  A
N361       Mn390   2.248       .  S
N362        C369   1.365       .  A
N363        N365   1.317       .  A
N363        N364   1.318       .  A
N363       Mn379   2.209       .  S
N364        C370   1.352       .  A
N365        N366   1.324       .  A
N365       Mn390   2.217       .  S
N366        C370   1.359       .  A
N367        N368   1.308       .  A
N367       Mn379   2.143       .  S
N368        C369   1.338       .  A
C369       C1036   1.470       .  S
C370        C961   1.490       .  S
N371        N377   1.311       .  A
N371        N372   1.324   1_545  A
N371       Mn401   2.213       .  S
N372        C380   1.359       .  A
N373        N374   1.316       .  A
N373        N375   1.313       .  A
N373       Mn379   2.185       .  S
N374        C381   1.349       .  A
N375        N376   1.322       .  A
N375       Mn401   2.190       .  S
N376        C381   1.354       .  A
N377        N378   1.311   1_545  A
N377       Mn379   2.147       .  S
N378        C380   1.344       .  A
Mn379      Cl403   2.496       .  S
C380        C973   1.475       .  S
C381       C1129   1.470       .  S
N382        N383   1.328       .  A
N382        N388   1.318       .  A
N382       Mn390   2.243       .  S
N383        C391   1.361       .  A
N384        N386   1.319       .  A
N384        N385   1.319       .  A
N384       Mn402   2.213       .  S
N385        C392   1.353       .  A
N386        N387   1.322       .  A
N386       Mn390   2.214       .  S
N387        C392   1.356       .  A
N388        N389   1.313       .  A
N388       Mn402   2.167       .  S
N389        C391   1.344       .  A
Mn390      Cl403   2.585       .  S
C391        C949   1.485       .  S
C392        C988   1.486       .  S
N393        N394   1.324       .  A
N393        N399   1.312       .  A
N393       Mn401   2.203       .  S
N394        C404   1.357       .  A
N395        N396   1.326       .  A
N395        N397   1.315       .  A
N395       Mn402   2.235       .  S
N396        C405   1.361       .  A
N397        N398   1.316       .  A
N397       Mn401   2.177       .  S
N398        C405   1.349       .  A
N399        N400   1.316       .  A
N399       Mn402   2.179       .  S
N400        C404   1.348       .  A
Mn401      Cl403   2.571       .  S
Mn402      Cl403   2.505       .  S
C404        C997   1.478       .  S
C405        C937   1.487       .  S
N406        N407   1.330       .  A
N406        N412   1.315       .  A
N406       Mn435   2.239       .  S
N407        C414   1.361       .  A
N408        N410   1.320       .  A
N408        N409   1.322       .  A
N408       Mn424   2.224       .  S
N409        C415   1.353       .  A
N410        N411   1.327       .  A
N410       Mn435   2.240       .  S
N411        C415   1.360       .  A
N412        N413   1.310       .  A
N412       Mn424   2.152       .  S
N413        C414   1.340       .  A
C414       C1084   1.468       .  S
C415        C925   1.494       .  S
N416        N422   1.311       .  A
N416        N417   1.322       .  A
N416       Mn446   2.200       .  S
N417        C425   1.355       .  A
N418        N419   1.321       .  A
N418        N420   1.315       .  A
N418       Mn424   2.220       .  S
N419        C426   1.354       .  A
N420        N421   1.320       .  A
N420       Mn446   2.180       .  S
N421        C426   1.351       .  A
N422        N423   1.314       .  A
N422       Mn424   2.161       .  S
N423        C425   1.346       .  A
Mn424      Cl448   2.500       .  S
C425        C976   1.458       .  S
C426       C1012   1.481       .  S
N427        N428   1.328       .  A
N427        N433   1.319       .  A
N427       Mn435   2.237       .  S
N428        C436   1.360       .  A
N429        N431   1.321       .  A
N429        N430   1.317       .  A
N429       Mn447   2.205       .  S
N430        C437   1.348       .  A
N431        N432   1.323       .  A
N431       Mn435   2.222       .  S
N432        C437   1.355       .  A
N433        N434   1.314       .  A
N433       Mn447   2.168       .  S
N434        C436   1.342       .  A
Mn435      Cl448   2.589       .  S
C436        C892   1.487       .  S
C437        C985   1.469       .  S
N438        N439   1.324       .  A
N438        N444   1.311       .  A
N438       Mn446   2.205       .  S
N439        C449   1.358       .  A
N440        N441   1.324       .  A
N440        N442   1.316       .  A
N440       Mn447   2.224       .  S
N441        C450   1.356       .  A
N442        N443   1.315       .  A
N442       Mn446   2.174       .  S
N443        C450   1.346       .  A
N444        N445   1.318       .  A
N444       Mn447   2.185       .  S
N445        C449   1.351       .  A
Mn446      Cl448   2.576       .  S
Mn447      Cl448   2.505       .  S
C449        C913   1.488       .  S
C450        C904   1.462       .  S
N451        N452   1.331       .  A
N451        N457   1.313       .  A
N451       Mn480   2.246       .  S
N452        C459   1.365       .  A
N453        N455   1.318       .  A
N453        N454   1.318       .  A
N453       Mn469   2.198       .  S
N454        C460   1.350       .  A
N455        N456   1.325       .  A
N455       Mn480   2.229       .  S
N456        C460   1.359       .  A
N457        N458   1.307       .  A
N457       Mn469   2.138       .  S
N458        C459   1.338       .  A
C459       C1021   1.469       .  S
C460        C916   1.489       .  S
N461        N467   1.311       .  A
N461        N462   1.323       .  A
N461       Mn491   2.207       .  S
N462        C470   1.356       .  A
N463        N464   1.319       .  A
N463        N465   1.313       .  A
N463       Mn469   2.192       .  S
N464        C471   1.349       .  A
N465        N466   1.321       .  A
N465       Mn491   2.191       .  S
N466        C471   1.354       .  A
N467        N468   1.313       .  A
N467       Mn469   2.156       .  S
N468        C470   1.346       .  A
Mn469      Cl493   2.500       .  S
C470        C865   1.464       .  S
C471       C1141   1.480       .  S
N472        N473   1.326       .  A
N472        N478   1.320       .  A
N472       Mn480   2.236       .  S
N473        C481   1.358       .  A
N474        N476   1.320       .  A
N474        N475   1.319       .  A
N474       Mn492   2.213       .  S
N475        C482   1.350       .  A
N476        N477   1.323       .  A
N476       Mn480   2.217       .  S
N477        C482   1.355       .  A
N478        N479   1.317       .  A
N478       Mn492   2.179       .  S
N479        C481   1.345       .  A
Mn480      Cl493   2.583       .  S
C481        C853   1.489       .  S
C482        C880   1.472       .  S
N483        N484   1.323       .  A
N483        N489   1.312       .  A
N483       Mn491   2.197       .  S
N484        C494   1.356       .  A
N485        N486   1.329       .  A
N485        N487   1.316       .  A
N485       Mn492   2.244       .  S
N486        C495   1.363       .  A
N487        N488   1.312       .  A
N487       Mn491   2.172       .  S
N488        C495   1.347       .  A
N489        N490   1.316       .  A
N489       Mn492   2.181       .  S
N490        C494   1.348       .  A
Mn491      Cl493   2.572       .  S
Mn492      Cl493   2.506       .  S
C494       C1000   1.471       .  S
C495        C841   1.488       .  S
N496        N497   1.332       .  A
N496        N502   1.313       .  A
N496       Mn525   2.258       .  S
N497        C504   1.368       .  A
N498        N500   1.318       .  A
N498        N499   1.324       .  A
N498       Mn514   2.235       .  S
N499        C505   1.357       .  A
N500        N501   1.325       .  A
N500       Mn525   2.223       .  S
N501        C505   1.358       .  A
N502        N503   1.307       .  A
N502       Mn514   2.137       .  S
N503        C504   1.336       .  A
C504       C1096   1.472       .  S
C505        C928   1.500       .  S
N506        N512   1.311       .  A
N506        N507   1.324       .  A
N506       Mn536   2.212       .  S
N507        C515   1.357       .  A
N508        N509   1.316       .  A
N508        N510   1.314       .  A
N508       Mn514   2.197       .  S
N509        C516   1.350       .  A
N510        N511   1.324       .  A
N510       Mn536   2.193       .  S
N511        C516   1.355       .  A
N512        N513   1.312       .  A
N512       Mn514   2.145       .  S
N513        C515   1.345       .  A
Mn514      Cl538   2.497       .  S
C515        C868   1.472       .  S
C516       C1045   1.484       .  S
N517        N518   1.327       .  A
N517        N523   1.319       .  A
N517       Mn525   2.240       .  S
N518        C526   1.360       .  A
N519        N521   1.321       .  A
N519        N520   1.318       .  A
N519       Mn537   2.215       .  S
N520        C527   1.351   1_565  A
N521        N522   1.324       .  A
N521       Mn525   2.229       .  S
N522        C527   1.358   1_565  A
N523        N524   1.315       .  A
N523       Mn537   2.175       .  S
N524        C526   1.345       .  A
Mn525      Cl538   2.589       .  S
C526        C817   1.487       .  S
C527        C877   1.489       .  S
N528        N529   1.324       .  A
N528        N534   1.312       .  A
N528       Mn536   2.208       .  S
N529        C539   1.358       .  A
N530        N531   1.328       .  A
N530        N532   1.315       .  A
N530       Mn537   2.244       .  S
N531        C540   1.363       .  A
N532        N533   1.314       .  A
N532       Mn536   2.169       .  S
N533        C540   1.346       .  A
N534        N535   1.320       .  A
N534       Mn537   2.197       .  S
N535        C539   1.352       .  A
Mn536      Cl538   2.573       .  S
Mn537      Cl538   2.511       .  S
C539        C964   1.490       .  S
C540        C829   1.487       .  S
N541        N542   1.321       .  A
N541        N547   1.316       .  A
N541       Mn570   2.216       .  S
N542        C549   1.356       .  A
N543        N545   1.311       .  A
N543        N544   1.320       .  A
N543       Mn559   2.196       .  S
N544        C550   1.353       .  A
N545        N546   1.324       .  A
N545       Mn570   2.205   1_565  S
N546        C550   1.357       .  A
N547        N548   1.319       .  A
N547       Mn559   2.200   1_545  S
N548        C549   1.353       .  A
C549       C1300   1.485       .  S
C550        C769   1.490       .  S
N551        N557   1.319       .  A
N551        N552   1.321       .  A
N551       Mn581   2.211       .  S
N552        C560   1.357       .  A
N553        N554   1.320       .  A
N553        N555   1.320       .  A
N553       Mn559   2.187       .  S
N554        C561   1.346       .  A
N555        N556   1.324       .  A
N555       Mn581   2.223       .  S
N556        C561   1.355       .  A
N557        N558   1.311       .  A
N557       Mn559   2.172       .  S
N558        C560   1.344       .  A
Mn559      Cl583   2.513   1_565  S
C560        C781   1.464       .  S
C561       C1372   1.484       .  S
N562        N563   1.323       .  A
N562        N568   1.316       .  A
N562       Mn570   2.217       .  S
N563        C571   1.357       .  A
N564        N566   1.311       .  A
N564        N565   1.314       .  A
N564       Mn582   2.161       .  S
N565        C572   1.348       .  A
N566        N567   1.322       .  A
N566       Mn570   2.203       .  S
N567        C572   1.357       .  A
N568        N569   1.319       .  A
N568       Mn582   2.189       .  S
N569        C571   1.349       .  A
Mn570      Cl583   2.571       .  S
C571        C820   1.486   1_545  S
C572        C793   1.476       .  S
N573        N574   1.324       .  A
N573        N579   1.319       .  A
N573       Mn581   2.223   1_545  S
N574        C584   1.358       .  A
N575        N576   1.310       .  A
N575        N577   1.313       .  A
N575       Mn582   2.152   1_565  S
N576        C585   1.340       .  A
N577        N578   1.329       .  A
N577       Mn581   2.230       .  S
N578        C585   1.360       .  A
N579        N580   1.319       .  A
N579       Mn582   2.213       .  S
N580        C584   1.352       .  A
Mn581      Cl583   2.579   1_565  S
Mn582      Cl583   2.505       .  S
C584        C808   1.489       .  S
C585        C940   1.468       .  S
N586        N587   1.319       .  A
N586        N592   1.316       .  A
N586       Mn615   2.196       .  S
N587        C594   1.352       .  A
N588        N590   1.312       .  A
N588        N589   1.322       .  A
N588       Mn604   2.202       .  S
N589        C595   1.354       .  A
N590        N591   1.321       .  A
N590       Mn615   2.199       .  S
N591        C595   1.356       .  A
N592        N593   1.325       .  A
N592       Mn604   2.233       .  S
N593        C594   1.360       .  A
C594       C1225   1.490       .  S
C595        C748   1.487       .  S
N596        N602   1.319       .  A
N596        N597   1.320       .  A
N596       Mn626   2.209       .  S
N597        C605   1.355       .  A
N598        N599   1.316       .  A
N598        N600   1.318       .  A
N598       Mn604   2.183       .  S
N599        C606   1.347       .  A
N600        N601   1.324       .  A
N600       Mn626   2.219       .  S
N601        C606   1.356       .  A
N602        N603   1.317       .  A
N602       Mn604   2.199       .  S
N603        C605   1.350       .  A
Mn604      Cl628   2.516       .  S
C605        C796   1.476       .  S
C606       C1468   1.478       .  S
N607        N608   1.326       .  A
N607        N613   1.315       .  A
N607       Mn615   2.208       .  S
N608        C616   1.357       .  A
N609        N611   1.311       .  A
N609        N610   1.311       .  A
N609       Mn627   2.135       .  S
N610        C617   1.344       .  A
N611        N612   1.321       .  A
N611       Mn615   2.205       .  S
N612        C617   1.356       .  A
N613        N614   1.315       .  A
N613       Mn627   2.193       .  S
N614        C616   1.348       .  A
Mn615      Cl628   2.566       .  S
C616        C844   1.479       .  S
C617        C784   1.463       .  S
N618        N619   1.323       .  A
N618        N624   1.317       .  A
N618       Mn626   2.213       .  S
N619        C629   1.357       .  A
N620        N621   1.307       .  A
N620        N622   1.311       .  A
N620       Mn627   2.134       .  S
N621        C630   1.337       .  A
N622        N623   1.330       .  A
N622       Mn626   2.242       .  S
N623        C630   1.366       .  A
N624        N625   1.323       .  A
N624       Mn627   2.231       .  S
N625        C629   1.357       .  A
Mn626      Cl628   2.577       .  S
Mn627      Cl628   2.503       .  S
C629        C757   1.497       .  S
C630        C889   1.469       .  S
N631        N632   1.318       .  A
N631        N637   1.317       .  A
N631       Mn660   2.199       .  S
N632        C639   1.351       .  A
N633        N635   1.311       .  A
N633        N634   1.320       .  A
N633       Mn649   2.197       .  S
N634        C640   1.352       .  A
N635        N636   1.323       .  A
N635       Mn660   2.199       .  S
N636        C640   1.357       .  A
N637        N638   1.325       .  A
N637       Mn649   2.231       .  S
N638        C639   1.360       .  A
C639       C1480   1.490       .  S
C640        C805   1.489       .  S
N641        N647   1.320   1_455  A
N641        N642   1.321       .  A
N641       Mn671   2.216       .  S
N642        C650   1.357       .  A
N643        N644   1.319       .  A
N643        N645   1.321       .  A
N643       Mn649   2.185   1_455  S
N644        C651   1.347       .  A
N645        N646   1.324       .  A
N645       Mn671   2.223       .  S
N646        C651   1.355       .  A
N647        N648   1.313       .  A
N647       Mn649   2.186       .  S
N648        C650   1.346   1_655  A
Mn649      Cl673   2.510       .  S
C650        C733   1.468   1_455  S
C651       C1312   1.489       .  S
N652        N653   1.324       .  A
N652        N658   1.315       .  A
N652       Mn660   2.214       .  S
N653        C661   1.359       .  A
N654        N656   1.310       .  A
N654        N655   1.312   1_655  A
N654       Mn672   2.147   1_655  S
N655        C662   1.345   1_455  A
N656        N657   1.320       .  A
N656       Mn660   2.191       .  S
N657        C662   1.353       .  A
N658        N659   1.317       .  A
N658       Mn672   2.185   1_655  S
N659        C661   1.346       .  A
Mn660      Cl673   2.573       .  S
C661        C952   1.481       .  S
C662        C721   1.455       .  S
N663        N664   1.325       .  A
N663        N669   1.318       .  A
N663       Mn671   2.224       .  S
N664        C674   1.359       .  A
N665        N666   1.307       .  A
N665        N667   1.311       .  A
N665       Mn672   2.132       .  S
N666        C675   1.337       .  A
N667        N668   1.332       .  A
N667       Mn671   2.245       .  S
N668        C675   1.366       .  A
N669        N670   1.319       .  A
N669       Mn672   2.216       .  S
N670        C674   1.353       .  A
Mn671      Cl673   2.580   1_455  S
Mn672      Cl673   2.497   1_455  S
C674        C745   1.492       .  S
C675        C856   1.471       .  S
N676        N677   1.315       .  A
N676        N682   1.315       .  A
N676       Mn705   2.189       .  S
N677        C684   1.351       .  A
N678        N680   1.311       .  A
N678        N679   1.322       .  A
N678       Mn694   2.205       .  S
N679        C685   1.355       .  A
N680        N681   1.324       .  A
N680       Mn705   2.207       .  S
N681        C685   1.358       .  A
N682        N683   1.321       .  A
N682       Mn694   2.201       .  S
N683        C684   1.355       .  A
C684       C1384   1.473       .  S
C685        C760   1.496       .  S
N686        N692   1.319   1_455  A
N686        N687   1.320       .  A
N686       Mn716   2.212       .  S
N687        C695   1.355       .  A
N688        N689   1.316       .  A
N688        N690   1.318       .  A
N688       Mn694   2.183   1_455  S
N689        C696   1.346       .  A
N690        N691   1.325       .  A
N690       Mn716   2.217       .  S
N691        C696   1.355       .  A
N692        N693   1.312       .  A
N692       Mn694   2.172       .  S
N693        C695   1.344   1_655  A
Mn694      Cl718   2.512       .  S
C695        C724   1.454   1_455  S
C696       C1240   1.477       .  S
N697        N698   1.321       .  A
N697        N703   1.316       .  A
N697       Mn705   2.192       .  S
N698        C706   1.351       .  A
N699        N701   1.311       .  A
N699        N700   1.312   1_655  A
N699       Mn717   2.151   1_655  S
N700        C707   1.345   1_455  A
N701        N702   1.322       .  A
N701       Mn705   2.202       .  S
N702        C707   1.357       .  A
N703        N704   1.318       .  A
N703       Mn717   2.199   1_655  S
N704        C706   1.350       .  A
Mn705      Cl718   2.570       .  S
C706        C901   1.470       .  S
C707        C736   1.467       .  S
N708        N709   1.323       .  A
N708        N714   1.318       .  A
N708       Mn716   2.214       .  S
N709        C719   1.357       .  A
N710        N711   1.309       .  A
N710        N712   1.313       .  A
N710       Mn717   2.148       .  S
N711        C720   1.339       .  A
N712        N713   1.329       .  A
N712       Mn716   2.230       .  S
N713        C720   1.361       .  A
N714        N715   1.321       .  A
N714       Mn717   2.225       .  S
N715        C719   1.355       .  A
Mn716      Cl718   2.578   1_455  S
Mn717      Cl718   2.501   1_455  S
C719        C772   1.490       .  S
C720        C832   1.467       .  S
C721        C722   1.398       .  A
C721        C726   1.405   1_655  A
C722        C723   1.394       .  A
C722        H727   1.084       .  S
C723        C724   1.409       .  A
C723        O728   1.372       .  S
C724        C725   1.396   1_655  A
C725        C726   1.390       .  A
C725        H729   1.084       .  S
C726        O730   1.369       .  S
O728        H732   0.992       .  S
O730        H731   0.992       .  S
C733        C734   1.398   1_655  A
C733        C738   1.413       .  A
C734        C735   1.395   1_545  A
C734        H739   1.084       .  S
C735        C736   1.412   1_455  A
C735        O740   1.372       .  S
C736        C737   1.398       .  A
C737        C738   1.395   1_565  A
C737        H741   1.084       .  S
C738        O742   1.372       .  S
O740        H744   0.992       .  S
O742        H743   0.992       .  S
C745        C746   1.407       .  A
C745        C750   1.412       .  A
C746        C747   1.408       .  A
C746        H751   1.083       .  S
C747        C748   1.413       .  A
C747        O752   1.372       .  S
C748        C749   1.400       .  A
C749        C750   1.400       .  A
C749        H753   1.084       .  S
C750        O754   1.370       .  S
O752        H756   0.992       .  S
O754        H755   0.991       .  S
C757        C758   1.407       .  A
C757        C762   1.413       .  A
C758        C759   1.405       .  A
C758        H763   1.083       .  S
C759        C760   1.413       .  A
C759        O764   1.372       .  S
C760        C761   1.407       .  A
C761        C762   1.407       .  A
C761        H765   1.083       .  S
C762        O766   1.371       .  S
O764        H768   0.992       .  S
O766        H767   0.992       .  S
C769        C770   1.407       .  A
C769        C774   1.410       .  A
C770        C771   1.403       .  A
C770        H775   1.083       .  S
C771        C772   1.411       .  A
C771        O776   1.371       .  S
C772        C773   1.407       .  A
C773        C774   1.404       .  A
C773        H777   1.083       .  S
C774        O778   1.371       .  S
O776        H780   0.992       .  S
O778        H779   0.992       .  S
C781        C782   1.406       .  A
C781        C786   1.403       .  A
C782        C783   1.392       .  A
C782        H787   1.084       .  S
C783        C784   1.403       .  A
C783        O788   1.372       .  S
C784        C785   1.406       .  A
C785        C786   1.392       .  A
C785        H789   1.084       .  S
C786        O790   1.372       .  S
O788        H792   0.992       .  S
O790        H791   0.992       .  S
C793        C794   1.406       .  A
C793        C798   1.407       .  A
C794        C795   1.394       .  A
C794        H799   1.083       .  S
C795        C796   1.407       .  A
C795        O800   1.372       .  S
C796        C797   1.407       .  A
C797        C798   1.399       .  A
C797        H801   1.083       .  S
C798        O802   1.371       .  S
O800        H804   0.992       .  S
O802        H803   0.992       .  S
C805        C806   1.408       .  A
C805        C810   1.410       .  A
C806        C807   1.403       .  A
C806        H811   1.083       .  S
C807        C808   1.410       .  A
C807        O812   1.371       .  S
C808        C809   1.407       .  A
C809        C810   1.402       .  A
C809        H813   1.083       .  S
C810        O814   1.371       .  S
O812        H816   0.992       .  S
O814        H815   0.992       .  S
C817        C818   1.409       .  A
C817        C822   1.408       .  A
C818        C819   1.398       .  A
C818        H823   1.083       .  S
C819        C820   1.406       .  A
C819        O824   1.371       .  S
C820        C821   1.410       .  A
C821        C822   1.405       .  A
C821        H825   1.083       .  S
C822        O826   1.371       .  S
O824        H828   0.992   1_565  S
O826        H827   0.992       .  S
C829        C830   1.404       .  A
C829        C834   1.416       .  A
C830        C831   1.405       .  A
C830        H835   1.083       .  S
C831        C832   1.410       .  A
C831        O836   1.371       .  S
C832        C833   1.399       .  A
C833        C834   1.398       .  A
C833        H837   1.084       .  S
C834        O838   1.372       .  S
O836        H840   0.992       .  S
O838        H839   0.992       .  S
C841        C842   1.407       .  A
C841        C846   1.411       .  A
C842        C843   1.391       .  A
C842        H847   1.083       .  S
C843        C844   1.405       .  A
C843        O848   1.372       .  S
C844        C845   1.408       .  A
C845        C846   1.411       .  A
C845        H849   1.083       .  S
C846        O850   1.371       .  S
O848        H852   0.992       .  S
O850        H851   0.992       .  S
C853        C854   1.411       .  A
C853        C858   1.408       .  A
C854        C855   1.402       .  A
C854        H859   1.083       .  S
C855        C856   1.405       .  A
C855        O860   1.371       .  S
C856        C857   1.408       .  A
C857        C858   1.402       .  A
C857        H861   1.084       .  S
C858        O862   1.371       .  S
O860        H864   0.991       .  S
O862        H863   0.992       .  S
C865        C866   1.405       .  A
C865        C870   1.402       .  A
C866        C867   1.399       .  A
C866        H871   1.084       .  S
C867        C868   1.405       .  A
C867        O872   1.372       .  S
C868        C869   1.407       .  A
C869        C870   1.394       .  A
C869        H873   1.082       .  S
C870        O874   1.372       .  S
O872        H876   0.992       .  S
O874        H875   0.991       .  S
C877        C878   1.407       .  A
C877        C882   1.416       .  A
C878        C879   1.403       .  A
C878        H883   1.083       .  S
C879        C880   1.406       .  A
C879        O884   1.371       .  S
C880        C881   1.399       .  A
C881        C882   1.400       .  A
C881        H885   1.084       .  S
C882        O886   1.372       .  S
O884        H888   0.992       .  S
O886        H887   0.992       .  S
C889        C890   1.399       .  A
C889        C894   1.412       .  A
C890        C891   1.401       .  A
C890        H895   1.084       .  S
C891        C892   1.418       .  A
C891        O896   1.372       .  S
C892        C893   1.402       .  A
C893        C894   1.403       .  A
C893        H897   1.083       .  S
C894        O898   1.373       .  S
O896        H900   0.992       .  S
O898        H899   0.992       .  S
C901        C902   1.404       .  A
C901        C906   1.407       .  A
C902        C903   1.395       .  A
C902        H907   1.084       .  S
C903        C904   1.403       .  A
C903        O908   1.372       .  S
C904        C905   1.403       .  A
C905        C906   1.402       .  A
C905        H909   1.084       .  S
C906        O910   1.371       .  S
O908        H912   0.992       .  S
O910        H911   0.992       .  S
C913        C914   1.408       .  A
C913        C918   1.409   1_655  A
C914        C915   1.402   1_655  A
C914        H919   1.083       .  S
C915        C916   1.409       .  A
C915        O920   1.371       .  S
C916        C917   1.409       .  A
C917        C918   1.402       .  A
C917        H921   1.083       .  S
C918        O922   1.371       .  S
O920        H924   0.992   1_455  S
O922        H923   0.992       .  S
C925        C926   1.405       .  A
C925        C930   1.412       .  A
C926        C927   1.408       .  A
C926        H931   1.083       .  S
C927        C928   1.414       .  A
C927        O932   1.370       .  S
C928        C929   1.407       .  A
C929        C930   1.409       .  A
C929        H933   1.083       .  S
C930        O934   1.372       .  S
O932        H936   0.991       .  S
O934        H935   0.992       .  S
C937        C938   1.408   1_545  A
C937        C942   1.409       .  A
C938        C939   1.400       .  A
C938        H943   1.083       .  S
C939        C940   1.404       .  A
C939        O944   1.373       .  S
C940        C941   1.406       .  A
C941        C942   1.404   1_565  A
C941        H945   1.084   1_565  S
C942        O946   1.371       .  S
O944        H948   0.992       .  S
O946        H947   0.992       .  S
C949        C950   1.411       .  A
C949        C954   1.405       .  A
C950        C951   1.397       .  A
C950        H955   1.083       .  S
C951        C952   1.403       .  A
C951        O956   1.372       .  S
C952        C953   1.411       .  A
C953        C954   1.404       .  A
C953        H957   1.083       .  S
C954        O958   1.371       .  S
O956        H960   0.992       .  S
O958        H959   0.992       .  S
C961        C962   1.408   1_545  A
C961        C966   1.410       .  A
C962        C963   1.402       .  A
C962        H967   1.083       .  S
C963        C964   1.410   1_655  A
C963        O968   1.371       .  S
C964        C965   1.409       .  A
C965        C966   1.404   1_465  A
C965        H969   1.083   1_565  S
C966        O970   1.371       .  S
O968        H972   0.992       .  S
O970        H971   0.992   1_655  S
C973        C974   1.403       .  A
C973        C978   1.417       .  A
C974        C975   1.398       .  A
C974        H979   1.083       .  S
C975        C976   1.406       .  A
C975        O980   1.371       .  S
C976        C977   1.395       .  A
C977        C978   1.394       .  A
C977        H981   1.084       .  S
C978        O982   1.373       .  S
O980        H984   0.992       .  S
O982        H983   0.992       .  S
C985        C986   1.401       .  A
C985        C990   1.404       .  A
C986        C987   1.402       .  A
C986        H991   1.084       .  S
C987        C988   1.412       .  A
C987        O992   1.371       .  S
C988        C989   1.408       .  A
C989        C990   1.399       .  A
C989        H993   1.083       .  S
C990        O994   1.372       .  S
O992        H996   0.992       .  S
O994        H995   0.991       .  S
C997        C998   1.402       .  A
C997       C1002   1.414       .  A
C998        C999   1.400       .  A
C998       H1003   1.083       .  S
C999       C1000   1.409       .  A
C999       O1004   1.372       .  S
C1000      C1001   1.400       .  A
C1001      C1002   1.399       .  A
C1001      H1005   1.084       .  S
C1002      O1006   1.372       .  S
O1004      H1008   0.992       .  S
O1006      H1007   0.992       .  S
C1009      C1010   1.404       .  A
C1009      C1014   1.416       .  A
C1010      C1011   1.405       .  A
C1010      H1015   1.083       .  S
C1011      C1012   1.413       .  A
C1011      O1016   1.372       .  S
C1012      C1013   1.399       .  A
C1013      C1014   1.397       .  A
C1013      H1017   1.084       .  S
C1014      O1018   1.372       .  S
O1016      H1020   0.992       .  S
O1018      H1019   0.992       .  S
C1021      C1022   1.399       .  A
C1021      C1026   1.410       .  A
C1022      C1023   1.402       .  A
C1022      H1027   1.084       .  S
C1023      C1024   1.417       .  A
C1023      O1028   1.371       .  S
C1024      C1025   1.403       .  A
C1025      C1026   1.401       .  A
C1025      H1029   1.083       .  S
C1026      O1030   1.373       .  S
O1028      H1032   0.992       .  S
O1030      H1031   0.991       .  S
C1033      C1034   1.403       .  A
C1033      C1038   1.416       .  A
C1034      C1035   1.402       .  A
C1034      H1039   1.083       .  S
C1035      C1036   1.410       .  A
C1035      O1040   1.372       .  S
C1036      C1037   1.401       .  A
C1037      C1038   1.402       .  A
C1037      H1041   1.084       .  S
C1038      O1042   1.372       .  S
O1040      H1044   0.992       .  S
O1042      H1043   0.992       .  S
C1045      C1046   1.405       .  A
C1045      C1050   1.414       .  A
C1046      C1047   1.392       .  A
C1046      H1051   1.083       .  S
C1047      C1048   1.406       .  A
C1047      O1052   1.372       .  S
C1048      C1049   1.403       .  A
C1049      C1050   1.407       .  A
C1049      H1053   1.083       .  S
C1050      O1054   1.371       .  S
O1052      H1056   0.992       .  S
O1054      H1055   0.992       .  S
C1057      C1058   1.398       .  A
C1057      C1062   1.412   1_455  A
C1058      C1059   1.400       .  A
C1058      H1063   1.084       .  S
C1059      C1060   1.414   1_455  A
C1059      O1064   1.373       .  S
C1060      C1061   1.400       .  A
C1061      C1062   1.399       .  A
C1061      H1065   1.084       .  S
C1062      O1066   1.371       .  S
O1064      H1068   0.992   1_556  S
O1066      H1067   0.992       .  S
C1069      C1070   1.405   1_655  A
C1069      C1074   1.407       .  A
C1070      C1071   1.400       .  A
C1070      H1075   1.084       .  S
C1071      C1072   1.407       .  A
C1071      O1076   1.372       .  S
C1072      C1073   1.406   1_455  A
C1073      C1074   1.400       .  A
C1073      H1077   1.084       .  S
C1074      O1078   1.371       .  S
O1076      H1080   0.992   1_554  S
O1078      H1079   0.992       .  S
C1081      C1082   1.404       .  A
C1081      C1086   1.414       .  A
C1082      C1083   1.404       .  A
C1082      H1087   1.083       .  S
C1083      C1084   1.409       .  A
C1083      O1088   1.371       .  S
C1084      C1085   1.400       .  A
C1085      C1086   1.400       .  A
C1085      H1089   1.084       .  S
C1086      O1090   1.372       .  S
O1088      H1092   0.992       .  S
O1090      H1091   0.992       .  S
C1093      C1094   1.405       .  A
C1093      C1098   1.416       .  A
C1094      C1095   1.405       .  A
C1094      H1099   1.083       .  S
C1095      C1096   1.411       .  A
C1095      O1100   1.371       .  S
C1096      C1097   1.402       .  A
C1097      C1098   1.403       .  A
C1097      H1101   1.084       .  S
C1098      O1102   1.372       .  S
O1100      H1104   0.992       .  S
O1102      H1103   0.992       .  S
C1105      C1106   1.407   1_556  A
C1105      C1110   1.413       .  A
C1106      C1107   1.404       .  A
C1106      H1111   1.083       .  S
C1107      C1108   1.408   1_554  A
C1107      O1112   1.372       .  S
C1108      C1109   1.403       .  A
C1109      C1110   1.403       .  A
C1109      H1113   1.084       .  S
C1110      O1114   1.371       .  S
O1112      H1116   0.992       .  S
O1114      H1115   0.992   1_556  S
C1117      C1118   1.399   1_556  A
C1117      C1122   1.417       .  A
C1118      C1119   1.401       .  A
C1118      H1123   1.083       .  S
C1119      C1120   1.419   1_554  A
C1119      O1124   1.372       .  S
C1120      C1121   1.402       .  A
C1121      C1122   1.406       .  A
C1121      H1125   1.083       .  S
C1122      O1126   1.371       .  S
O1124      H1128   0.991       .  S
O1126      H1127   0.991       .  S
C1129      C1130   1.399       .  A
C1129      C1134   1.408       .  A
C1130      C1131   1.393       .  A
C1130      H1135   1.084       .  S
C1131      C1132   1.412       .  A
C1131      O1136   1.372       .  S
C1132      C1133   1.406       .  A
C1133      C1134   1.402       .  A
C1133      H1137   1.083       .  S
C1134      O1138   1.372       .  S
O1136      H1140   0.992       .  S
O1138      H1139   0.992       .  S
C1141      C1142   1.406       .  A
C1141      C1146   1.409       .  A
C1142      C1143   1.402       .  A
C1142      H1147   1.083       .  S
C1143      C1144   1.409       .  A
C1143      O1148   1.371       .  S
C1144      C1145   1.404       .  A
C1145      C1146   1.397       .  A
C1145      H1149   1.084       .  S
C1146      O1150   1.372       .  S
O1148      H1152   0.992       .  S
O1150      H1151   0.992       .  S
C1153      C1154   1.405   1_554  A
C1153      C1158   1.409       .  A
C1154      C1155   1.398       .  A
C1154      H1159   1.083       .  S
C1155      C1156   1.410   1_556  A
C1155      O1160   1.372       .  S
C1156      C1157   1.407       .  A
C1157      C1158   1.404       .  A
C1157      H1161   1.083       .  S
C1158      O1162   1.371       .  S
O1160      H1164   0.992       .  S
O1162      H1163   0.992       .  S
C1165      C1166   1.397       .  A
C1165      C1170   1.410       .  A
C1166      C1167   1.394       .  A
C1166      H1171   1.084       .  S
C1167      C1168   1.412       .  A
C1167      O1172   1.373       .  S
C1168      C1169   1.397       .  A
C1169      C1170   1.394       .  A
C1169      H1173   1.084       .  S
C1170      O1174   1.371       .  S
O1172      H1176   0.992       .  S
O1174      H1175   0.992   1_554  S
C1177      C1178   1.404   1_554  A
C1177      C1182   1.404       .  A
C1178      C1179   1.394   1_566  A
C1178      H1183   1.082       .  S
C1179      C1180   1.404       .  A
C1179      O1184   1.372   1_554  S
C1180      C1181   1.405       .  A
C1181      C1182   1.393   1_545  A
C1181      H1185   1.084       .  S
C1182      O1186   1.372       .  S
O1184      H1188   0.992       .  S
O1186      H1187   0.992       .  S
C1189      C1190   1.408       .  A
C1189      C1194   1.409       .  A
C1190      C1191   1.399       .  A
C1190      H1195   1.084       .  S
C1191      C1192   1.406       .  A
C1191      O1196   1.372   1_554  S
C1192      C1193   1.406       .  A
C1193      C1194   1.406       .  A
C1193      H1197   1.082       .  S
C1194      O1198   1.371       .  S
O1196      H1200   0.992   1_556  S
O1198      H1199   0.992   1_554  S
C1201      C1202   1.402       .  A
C1201      C1206   1.414       .  A
C1202      C1203   1.408       .  A
C1202      H1207   1.084       .  S
C1203      C1204   1.419       .  A
C1203      O1208   1.371       .  S
C1204      C1205   1.400       .  A
C1205      C1206   1.405       .  A
C1205      H1209   1.083       .  S
C1206      O1210   1.371       .  S
O1208      H1212   0.992       .  S
O1210      H1211   0.992       .  S
C1213      C1214   1.402       .  A
C1213      C1218   1.419       .  A
C1214      C1215   1.405       .  A
C1214      H1219   1.083       .  S
C1215      C1216   1.413       .  A
C1215      O1220   1.373       .  S
C1216      C1217   1.397       .  A
C1217      C1218   1.401       .  A
C1217      H1221   1.084       .  S
C1218      O1222   1.371       .  S
O1220      H1224   0.992       .  S
O1222      H1223   0.992       .  S
C1225      C1226   1.407       .  A
C1225      C1230   1.410       .  A
C1226      C1227   1.404       .  A
C1226      H1231   1.083       .  S
C1227      C1228   1.406       .  A
C1227      O1232   1.373       .  S
C1228      C1229   1.406       .  A
C1229      C1230   1.406       .  A
C1229      H1233   1.084       .  S
C1230      O1234   1.371       .  S
O1232      H1236   0.992       .  S
O1234      H1235   0.992       .  S
C1237      C1238   1.397       .  A
C1237      C1242   1.411       .  A
C1238      C1239   1.397       .  A
C1238      H1243   1.084       .  S
C1239      C1240   1.414       .  A
C1239      O1244   1.372       .  S
C1240      C1241   1.401       .  A
C1241      C1242   1.402       .  A
C1241      H1245   1.084       .  S
C1242      O1246   1.371       .  S
O1244      H1248   0.992       .  S
O1246      H1247   0.992       .  S
C1249      C1250   1.411       .  A
C1249      C1254   1.408       .  A
C1250      C1251   1.400       .  A
C1250      H1255   1.083       .  S
C1251      C1252   1.401       .  A
C1251      O1256   1.371       .  S
C1252      C1253   1.409       .  A
C1253      C1254   1.405       .  A
C1253      H1257   1.084       .  S
C1254      O1258   1.372       .  S
O1256      H1260   0.992       .  S
O1258      H1259   0.992       .  S
C1261      C1262   1.408       .  A
C1261      C1266   1.408       .  A
C1262      C1263   1.394       .  A
C1262      H1267   1.083       .  S
C1263      C1264   1.406   1_545  A
C1263      O1268   1.372   1_545  S
C1264      C1265   1.410   1_565  A
C1265      C1266   1.406       .  A
C1265      H1269   1.083       .  S
C1266      O1270   1.371       .  S
O1268      H1272   0.992       .  S
O1270      H1271   0.992       .  S
C1273      C1274   1.404       .  A
C1273      C1278   1.412       .  A
C1274      C1275   1.405       .  A
C1274      H1279   1.083       .  S
C1275      C1276   1.411       .  A
C1275      O1280   1.372       .  S
C1276      C1277   1.402       .  A
C1277      C1278   1.403       .  A
C1277      H1281   1.084       .  S
C1278      O1282   1.370       .  S
O1280      H1284   0.992       .  S
O1282      H1283   0.992       .  S
C1285      C1286   1.405       .  A
C1285      C1290   1.404       .  A
C1286      C1287   1.396       .  A
C1286      H1291   1.084       .  S
C1287      C1288   1.404       .  A
C1287      O1292   1.371       .  S
C1288      C1289   1.406       .  A
C1289      C1290   1.397       .  A
C1289      H1293   1.084       .  S
C1290      O1294   1.372       .  S
O1292      H1296   0.991       .  S
O1294      H1295   0.992       .  S
C1297      C1298   1.401       .  A
C1297      C1302   1.406       .  A
C1298      C1299   1.401       .  A
C1298      H1303   1.084       .  S
C1299      C1300   1.414       .  A
C1299      O1304   1.372       .  S
C1300      C1301   1.406       .  A
C1301      C1302   1.401       .  A
C1301      H1305   1.083       .  S
C1302      O1306   1.371       .  S
O1304      H1308   0.992       .  S
O1306      H1307   0.992       .  S
C1309      C1310   1.400       .  A
C1309      C1314   1.411       .  A
C1310      C1311   1.403       .  A
C1310      H1315   1.084       .  S
C1311      C1312   1.417       .  A
C1311      O1316   1.371       .  S
C1312      C1313   1.403       .  A
C1313      C1314   1.401       .  A
C1313      H1317   1.083       .  S
C1314      O1318   1.374       .  S
O1316      H1320   0.992       .  S
O1318      H1319   0.992       .  S
C1321      C1322   1.400       .  A
C1321      C1326   1.416       .  A
C1322      C1323   1.402       .  A
C1322      H1327   1.084       .  S
C1323      C1324   1.412       .  A
C1323      O1328   1.370       .  S
C1324      C1325   1.397       .  A
C1325      C1326   1.397       .  A
C1325      H1329   1.084       .  S
C1326      O1330   1.372       .  S
O1328      H1332   0.992       .  S
O1330      H1331   0.992       .  S
C1333      C1334   1.403       .  A
C1333      C1338   1.416   1_565  A
C1334      C1335   1.403       .  A
C1334      H1339   1.083       .  S
C1335      C1336   1.410   1_565  A
C1335      O1340   1.371       .  S
C1336      C1337   1.398       .  A
C1337      C1338   1.397       .  A
C1337      H1341   1.084       .  S
C1338      O1342   1.372       .  S
O1340      H1344   0.992   1_565  S
O1342      H1343   0.992       .  S
C1345      C1346   1.402   1_655  A
C1345      C1350   1.414       .  A
C1346      C1347   1.400       .  A
C1346      H1351   1.083       .  S
C1347      C1348   1.409       .  A
C1347      O1352   1.370       .  S
C1348      C1349   1.397   1_455  A
C1349      C1350   1.399       .  A
C1349      H1353   1.084       .  S
C1350      O1354   1.370       .  S
O1352      H1356   0.992       .  S
O1354      H1355   0.992       .  S
C1357      C1358   1.408   1_565  A
C1357      C1362   1.409       .  A
C1358      C1359   1.402       .  A
C1358      H1363   1.083       .  S
C1359      C1360   1.409       .  A
C1359      O1364   1.371       .  S
C1360      C1361   1.407   1_545  A
C1361      C1362   1.401       .  A
C1361      H1365   1.083       .  S
C1362      O1366   1.371       .  S
O1364      H1368   0.992       .  S
O1366      H1367   0.992       .  S
C1369      C1370   1.403       .  A
C1369      C1374   1.410       .  A
C1370      C1371   1.403       .  A
C1370      H1375   1.084       .  S
C1371      C1372   1.411       .  A
C1371      O1376   1.371       .  S
C1372      C1373   1.405       .  A
C1373      C1374   1.402       .  A
C1373      H1377   1.084       .  S
C1374      O1378   1.373       .  S
O1376      H1380   0.992       .  S
O1378      H1379   0.992       .  S
C1381      C1382   1.401       .  A
C1381      C1386   1.410       .  A
C1382      C1383   1.391       .  A
C1382      H1387   1.084       .  S
C1383      C1384   1.409       .  A
C1383      O1388   1.372       .  S
C1384      C1385   1.405       .  A
C1385      C1386   1.402       .  A
C1385      H1389   1.083       .  S
C1386      O1390   1.371       .  S
O1388      H1392   0.992       .  S
O1390      H1391   0.992       .  S
C1393      C1394   1.395       .  A
C1393      C1398   1.407       .  A
C1394      C1395   1.394       .  A
C1394      H1399   1.084       .  S
C1395      C1396   1.412       .  A
C1395      O1400   1.372       .  S
C1396      C1397   1.402       .  A
C1397      C1398   1.399       .  A
C1397      H1401   1.083       .  S
C1398      O1402   1.372       .  S
O1400      H1404   0.992       .  S
O1402      H1403   0.992       .  S
C1405      C1406   1.404       .  A
C1405      C1410   1.408       .  A
C1406      C1407   1.397       .  A
C1406      H1411   1.084       .  S
C1407      C1408   1.410       .  A
C1407      O1412   1.372       .  S
C1408      C1409   1.407       .  A
C1409      C1410   1.402       .  A
C1409      H1413   1.083       .  S
C1410      O1414   1.371       .  S
O1412      H1416   0.992       .  S
O1414      H1415   0.992       .  S
C1417      C1418   1.402       .  A
C1417      C1422   1.412       .  A
C1418      C1419   1.404   1_455  A
C1418      H1423   1.084       .  S
C1419      C1420   1.414       .  A
C1419      O1424   1.368       .  S
C1420      C1421   1.407   1_655  A
C1421      C1422   1.409       .  A
C1421      H1425   1.083       .  S
C1422      O1426   1.371       .  S
O1424      H1428   0.992       .  S
O1426      H1427   0.992       .  S
C1429      C1430   1.396       .  A
C1429      C1434   1.408       .  A
C1430      C1431   1.405       .  A
C1430      H1435   1.084       .  S
C1431      C1432   1.418       .  A
C1431      O1436   1.374       .  S
C1432      C1433   1.408       .  A
C1433      C1434   1.408       .  A
C1433      H1437   1.083       .  S
C1434      O1438   1.371       .  S
O1436      H1440   0.991       .  S
O1438      H1439   0.992       .  S
C1441      C1442   1.398       .  A
C1441      C1446   1.414       .  A
C1442      C1443   1.398       .  A
C1442      H1447   1.084       .  S
C1443      C1444   1.409       .  A
C1443      O1448   1.370       .  S
C1444      C1445   1.398       .  A
C1445      C1446   1.398       .  A
C1445      H1449   1.084       .  S
C1446      O1450   1.372       .  S
O1448      H1452   0.990       .  S
O1450      H1451   0.992       .  S
C1453      C1454   1.410       .  A
C1453      C1458   1.408       .  A
C1454      C1455   1.401       .  A
C1454      H1459   1.083       .  S
C1455      C1456   1.408       .  A
C1455      O1460   1.371       .  S
C1456      C1457   1.410       .  A
C1457      C1458   1.404       .  A
C1457      H1461   1.083       .  S
C1458      O1462   1.371       .  S
O1460      H1464   0.992       .  S
O1462      H1463   0.992       .  S
C1465      C1466   1.403       .  A
C1465      C1470   1.411       .  A
C1466      C1467   1.397       .  A
C1466      H1471   1.084       .  S
C1467      C1468   1.410       .  A
C1467      O1472   1.372       .  S
C1468      C1469   1.404       .  A
C1469      C1470   1.402       .  A
C1469      H1473   1.083       .  S
C1470      O1474   1.372       .  S
O1472      H1476   0.992       .  S
O1474      H1475   0.992       .  S
C1477      C1478   1.406       .  A
C1477      C1482   1.404       .  A
C1478      C1479   1.405       .  A
C1478      H1483   1.084       .  S
C1479      C1480   1.410       .  A
C1479      O1484   1.372       .  S
C1480      C1481   1.409       .  A
C1481      C1482   1.402       .  A
C1481      H1485   1.083       .  S
C1482      O1486   1.371       .  S
O1484      H1488   0.992       .  S
O1486      H1487   0.992       .  S
