geometry optimzed in LAMMPS
_audit_creation_date              2020-11-30 
_audit_creation_method            'lammps2cif' 
_symmetry_space_group_name_H-M    'P1' 
_symmetry_Int_Tables_number       1 
_symmetry_cell_setting            triclinic 
loop_ 
_symmetry_equiv_pos_as_xyz 
  x,y,z 
_cell_length_a                    43.05128612 
_cell_length_b                    42.97465669010938 
_cell_length_c                    42.98164296933825 
_cell_angle_alpha                 90.18148639519539 
_cell_angle_beta                  89.85142674534903 
_cell_angle_gamma                 89.70160743381695 
loop_ 
_atom_site_label 
_atom_site_type_symbol 
_atom_site_fract_x 
_atom_site_fract_y 
_atom_site_fract_z 
_atom_site_charge 
C1          C  0.98895932  0.27238180  0.21815974     0.03600
C2          C  0.97657068  0.24338281  0.22745462    -0.12500
C3          C  0.98828113  0.22882770  0.25451886     0.01100
C4          C  0.01206347  0.24305764  0.27141106    -0.11100
C5          C  0.02282293  0.27252685  0.26360905     0.03600
C6          C  0.01222548  0.28629906  0.23616292    -0.10500
H7          H  0.95722414  0.23330446  0.21499231     0.09200
H8          H  0.01998767  0.23227747  0.29278791     0.06700
H9          H  0.02047743  0.30906363  0.22955707     0.06600
O10         O  0.01421449  0.43216143  0.41674395    -0.79700
O11         O  0.99516932  0.43542302  0.59300463    -0.81200
O12         O  0.05686556  0.39449580  0.51287596    -0.78200
O13         O  0.95385429  0.39548405  0.50346466    -0.76600
O14         O  0.91705006  0.43392294  0.50788914    -0.78400
O15         O  0.09308389  0.43312915  0.50874891    -0.79300
O16         O  0.99383713  0.39745932  0.55543688    -0.80700
O17         O  0.01435538  0.39460667  0.45454648    -0.81000
Eu18       Eu  0.00578390  0.42060651  0.50503709     2.39200
O19         O  0.97508224  0.45414442  0.53537893    -0.88500
O20         O  0.03679195  0.45250184  0.47348182    -0.92100
C21         C  0.01754112  0.40392438  0.42617517     1.02600
C22         C  0.99021732  0.40736899  0.58354498     1.02400
C23         C  0.08519106  0.40443849  0.51221793     1.02400
C24         C  0.92543675  0.40512560  0.50639543     1.00200
H25         H  0.04940718  0.44006245  0.55081931     0.30000
O26         O  0.03694819  0.45267014  0.53710214    -1.00800
H27         H  0.96188808  0.43828560  0.45940065     0.30000
O28         O  0.97449209  0.45165503  0.47224428    -1.03400
O29         O  0.01683591  0.53649320  0.59052688    -0.80600
O30         O  0.00687635  0.53469595  0.41494557    -0.80200
O31         O  0.09449910  0.48826440  0.55457695    -0.78600
O32         O  0.91732182  0.48670833  0.55489356    -0.81900
O33         O  0.91688634  0.48219088  0.45252306    -0.79800
O34         O  0.09655093  0.48053896  0.45530237    -0.78400
O35         O  0.05507618  0.57370346  0.50278246    -0.80000
O36         O  0.95220204  0.57239111  0.50713882    -0.81900
O37         O  0.09264786  0.53578069  0.50332823    -0.78600
O38         O  0.91561574  0.53409682  0.50394410    -0.81300
O39         O  0.05812738  0.48265827  0.59310461    -0.77000
O40         O  0.05936081  0.47942595  0.41728610    -0.77100
O41         O  0.95423120  0.48016213  0.41445073    -0.76700
O42         O  0.95365449  0.49161437  0.59350490    -0.80200
O43         O  0.01500823  0.57264460  0.55149607    -0.79600
O44         O  0.00393058  0.57272625  0.45234688    -0.78000
Eu45       Eu  0.00548522  0.48553924  0.56801528     2.39800
Eu46       Eu  0.00608316  0.48320269  0.44032683     2.39600
Eu47       Eu  0.06805851  0.48428608  0.50454094     2.38400
Eu48       Eu  0.94286888  0.48426738  0.50364648     2.39900
Eu49       Eu  0.00426244  0.54716148  0.50262230     2.39800
O50         O  0.97344065  0.51534996  0.47082268    -0.92400
O51         O  0.03545323  0.51581482  0.53442396    -0.91300
C52         C  0.02046296  0.56410600  0.57957891     1.02800
C53         C  0.00588041  0.56343018  0.42393480     1.01500
C54         C  0.08656404  0.48564233  0.58333130     1.00900
C55         C  0.92524710  0.48987817  0.58367774     1.02900
C56         C  0.92550275  0.48068906  0.42371955     1.01800
C57         C  0.08796967  0.47847346  0.42667489     1.00700
C58         C  0.08371305  0.56447128  0.50323976     1.00700
C59         C  0.92374047  0.56276702  0.50644427     1.03400
H60         H  0.05013817  0.52804106  0.45871826     0.30700
O61         O  0.03696649  0.51539979  0.47171861    -1.04500
H62         H  0.96092547  0.53029136  0.54859280     0.32800
O63         O  0.97352632  0.51670204  0.53576421    -1.07100
C64         C  0.03538117  0.73100047  0.75525987     0.03600
C65         C  0.05740280  0.71095948  0.74174241    -0.12500
C66         C  0.06933033  0.71687760  0.71209780     0.01100
C67         C  0.06277778  0.74545467  0.69815992    -0.11100
C68         C  0.04066134  0.76583476  0.71081610     0.09600
C69         C  0.02663971  0.75860403  0.73965532    -0.10500
H70         H  0.06216616  0.68896160  0.75298744     0.09200
H71         H  0.07220735  0.75031136  0.67526175     0.06700
H72         H  0.00795666  0.77299921  0.74871128     0.06600
C73         C  0.98704785  0.25748202  0.76832384     0.03600
C74         C  0.99848603  0.23150510  0.75145191    -0.12500
C75         C  0.98279185  0.22161661  0.72430374     0.01100
C76         C  0.95651390  0.23809509  0.71432470    -0.11100
C77         C  0.94748021  0.26582349  0.72886558     0.03600
C78         C  0.96066117  0.27333043  0.75761271    -0.10500
H79         H  0.02020846  0.22060096  0.75807188     0.09200
H80         H  0.94595847  0.23167004  0.69235272     0.06700
H81         H  0.95331949  0.29425038  0.76972478     0.06600
C82         C  0.98675437  0.72409651  0.21757797     0.03600
C83         C  0.97756009  0.75379244  0.22785088    -0.12500
C84         C  0.98292539  0.76226739  0.25892900     0.01100
C85         C  0.99794412  0.74155523  0.27909627    -0.11100
C86         C  0.00706767  0.71198759  0.26905682     0.03600
C87         C  0.00222088  0.70383747  0.23789712    -0.10500
H88         H  0.96444603  0.76904570  0.21269095     0.09200
H89         H  0.00105213  0.74805725  0.30328921     0.06700
H90         H  0.00848555  0.68086028  0.22959023     0.06600
O91         O  0.98838928  0.04969433  0.39516365    -0.79700
O92         O  0.99884909  0.04729170  0.57121505    -0.81200
O93         O  0.94290364  0.08441682  0.49614391    -0.78200
O94         O  0.04476492  0.08617838  0.47464795    -0.76600
O95         O  0.08184341  0.04771939  0.47268980    -0.78400
O96         O  0.90501294  0.04699682  0.49548116    -0.79300
O97         O  0.99939846  0.08647134  0.53526015    -0.80700
O98         O  0.98694167  0.08773305  0.43262385    -0.81000
Eu99       Eu  0.99386697  0.06117074  0.48320967     2.39200
O100        O  0.02808378  0.02885839  0.51156470    -0.88500
O101        O  0.96040599  0.02983041  0.45264558    -0.92100
C102        C  0.98671185  0.07830409  0.40400551     1.02600
C103        C  0.99961796  0.07638047  0.56365247     1.02400
C104        C  0.91485198  0.07482101  0.50078227     1.02400
C105        C  0.07294707  0.07629291  0.47090834     1.00200
H106        H  0.95371961  0.03927481  0.53003590     0.30000
O107        O  0.96521659  0.02729729  0.51484936    -1.00800
H108        H  0.03473800  0.04247379  0.43488966     0.30000
O109        O  0.02317811  0.02948051  0.44901017    -1.03400
O110        O  0.00182548  0.94524020  0.56930856    -0.80600
O111        O  0.98910241  0.94748706  0.39221708    -0.80200
O112        O  0.90924968  0.99697816  0.53899245    -0.78600
O113        O  0.08611583  0.99667735  0.52656503    -0.81900
O114        O  0.07910414  0.00082689  0.42392863    -0.79800
O115        O  0.90348366  0.00067709  0.43363391    -0.78400
O116        O  0.94492206  0.90808374  0.47915599    -0.80000
O117        O  0.04530658  0.90924147  0.47075296    -0.81900
O118        O  0.90624623  0.94491754  0.48118509    -0.78600
O119        O  0.08299233  0.94653819  0.46814483    -0.81300
O120        O  0.94953149  0.99630803  0.57382685    -0.77000
O121        O  0.93967603  0.99948411  0.39446278    -0.77100
O122        O  0.03953337  0.99871476  0.38853490    -0.76700
O123        O  0.05087163  0.99811990  0.56656707    -0.80200
O124        O  0.99918793  0.90794403  0.53125371    -0.79600
O125        O  0.98905950  0.90935970  0.42932907    -0.78000
Eu126      Eu  0.99853113  0.99634914  0.54427202     2.39800
Eu127      Eu  0.99075038  0.99825477  0.41874652     2.39600
Eu128      Eu  0.93066994  0.99693623  0.48508569     2.38400
Eu129      Eu  0.05726928  0.99719462  0.47700651     2.39900
Eu130      Eu  0.99484625  0.93434041  0.48046077     2.39800
O131        O  0.02422364  0.96595887  0.44716088    -0.92400
O132        O  0.96445385  0.96500719  0.51460572    -0.91300
C133        C  0.00167672  0.91671017  0.55995476     1.02800
C134        C  0.98773204  0.91882837  0.40089616     1.01500
C135        C  0.92037582  0.99745649  0.56701533     1.00900
C136        C  0.07884125  0.99758589  0.55576609     1.02900
C137        C  0.06853839  0.00058773  0.39582370     1.01800
C138        C  0.91150233  0.00055957  0.40444930     1.00700
C139        C  0.91621596  0.91658192  0.47829619     1.00700
C140        C  0.07354858  0.91809870  0.46635818     1.03400
H141        H  0.94785406  0.95407364  0.43858477     0.30700
O142        O  0.96130018  0.96647506  0.45151318    -1.04500
H143        H  0.04252024  0.95190633  0.52190463     0.32800
O144        O  0.02848733  0.96506475  0.51039293    -1.07100
C145        C  0.23900614  0.25929505  0.50736160     0.03600
C146        C  0.22097942  0.24514562  0.48433340    -0.12500
C147        C  0.22757365  0.21494391  0.47415821     0.01100
C148        C  0.25424281  0.20005788  0.48531324    -0.11100
C149        C  0.27298989  0.21412421  0.50793561     0.03600
C150        C  0.26540944  0.24400605  0.51911403    -0.10500
H151        H  0.20038105  0.25713616  0.47624559     0.09200
H152        H  0.25957640  0.17652047  0.47778367     0.06700
H153        H  0.27885797  0.25446997  0.53762616     0.06600
C154        C  0.73321258  0.21490281  0.52656087     0.03600
C155        C  0.74685723  0.24214963  0.51443825    -0.12500
C156        C  0.77366451  0.25447709  0.52874423     0.01100
C157        C  0.78692583  0.23894115  0.55407206    -0.11100
C158        C  0.77508086  0.21049958  0.56436968     0.03600
C159        C  0.74652197  0.20051037  0.55254814    -0.10500
H160        H  0.73778222  0.25260629  0.49342523     0.09200
H161        H  0.80890150  0.24717696  0.56315396     0.06700
H162        H  0.73628012  0.17915652  0.56083763     0.06600
C163        C  0.73112107  0.75219729  0.49325810     0.03600
C164        C  0.74558125  0.72467745  0.50344210    -0.12500
C165        C  0.77411802  0.71561279  0.49007758     0.01100
C166        C  0.78791338  0.73432969  0.46716268    -0.11100
C167        C  0.77434075  0.76257827  0.45829662     0.03600
C168        C  0.74481571  0.76995909  0.46978189    -0.10500
H169        H  0.73589102  0.71171797  0.52271097     0.09200
H170        H  0.81088311  0.72829261  0.45858867     0.06700
H171        H  0.73342077  0.79133286  0.46290324     0.06600
C172        C  0.22863574  0.71670505  0.46976452     0.03600
C173        C  0.25668798  0.73040024  0.47982787    -0.12500
C174        C  0.26477814  0.76039883  0.46920613     0.01100
C175        C  0.24456272  0.77618001  0.44903987    -0.11100
C176        C  0.21630091  0.76313865  0.43973961     0.03600
C177        C  0.20960430  0.73260865  0.44861763    -0.10500
H178        H  0.27061332  0.71907229  0.49746881     0.09200
H179        H  0.24982457  0.79996180  0.44263907     0.06700
H180        H  0.18772545  0.72225751  0.44190325     0.06600
C181        C  0.71822635  0.01777153  0.21549324     0.03600
C182        C  0.74755226  0.00783037  0.22661945    -0.12500
C183        C  0.75768168  0.01808982  0.25617870     0.01100
C184        C  0.73884345  0.03840727  0.27359785    -0.11100
C185        C  0.70921907  0.04679439  0.26357457     0.03600
C186        C  0.70012106  0.03825720  0.23358778    -0.10500
H187        H  0.76069387  0.99028834  0.21402974     0.09200
H188        H  0.74602337  0.04488963  0.29689907     0.06700
H189        H  0.67729289  0.04481675  0.22533201     0.06600
O190        O  0.45330363  0.07223638  0.51231091    -0.79700
O191        O  0.45221421  0.89511139  0.49585933    -0.81200
O192        O  0.41321094  0.98619357  0.45310455    -0.78200
O193        O  0.41781014  0.97058383  0.55323085    -0.76600
O194        O  0.45583698  0.96866541  0.59044790    -0.78400
O195        O  0.45053457  0.98850395  0.41508611    -0.79300
O196        O  0.41488379  0.93310236  0.49957433    -0.80700
O197        O  0.41474482  0.03578141  0.51212519    -0.81000
Eu198      Eu  0.44027215  0.98450353  0.50340081     2.39200
O199        O  0.47392285  0.95163328  0.53094616    -0.88500
O200        O  0.47055757  0.01813205  0.47288555    -0.92100
C201        C  0.42463452  0.06411624  0.51412780     1.02600
C202        C  0.42362050  0.90432325  0.49719943     1.02400
C203        C  0.42218157  0.98693341  0.42443385     1.02400
C204        C  0.42770207  0.96497690  0.58088394     1.00200
H205        H  0.45767183  0.94254716  0.45531055     0.30000
O206        O  0.47079165  0.95472681  0.46880234    -1.00800
H207        H  0.46002177  0.02486068  0.55245084     0.30000
O208        O  0.47239065  0.01312180  0.53771772    -1.03400
O209        O  0.55476553  0.89520298  0.49545753    -0.80600
O210        O  0.55332304  0.07304815  0.50616985    -0.80200
O211        O  0.50323793  0.93774595  0.40950108    -0.78600
O212        O  0.50671851  0.92524656  0.58577712    -0.81900
O213        O  0.50932789  0.03023563  0.59406212    -0.79800
O214        O  0.50313008  0.04159634  0.41773173    -0.78400
O215        O  0.58973928  0.99415453  0.44721584    -0.80000
O216        O  0.59383144  0.97378571  0.54835131    -0.81900
O217        O  0.55011013  0.99624828  0.41168569    -0.78600
O218        O  0.55749154  0.96948412  0.58722146    -0.81300
O219        O  0.50181052  0.89830434  0.44508108    -0.77000
O220        O  0.50295627  0.07638638  0.45822938    -0.77100
O221        O  0.50813422  0.06918966  0.55786729    -0.76700
O222        O  0.50160177  0.89112740  0.54504855    -0.80200
O223        O  0.59299657  0.93213156  0.49715349    -0.79600
O224        O  0.59192394  0.03634498  0.50241588    -0.78000
Eu225      Eu  0.50337809  0.92105874  0.49667716     2.39800
Eu226      Eu  0.50331998  0.04603456  0.50670660     2.39600
Eu227      Eu  0.50165085  0.98789602  0.43884567     2.38400
Eu228      Eu  0.50594267  0.97937450  0.56522434     2.39900
Eu229      Eu  0.56722047  0.98380067  0.49915052     2.39800
O230        O  0.53695711  0.01296057  0.53494067    -0.92400
O231        O  0.53517228  0.95376076  0.46592108    -0.91300
C232        C  0.58351145  0.90359433  0.49675925     1.02800
C233        C  0.58214036  0.06492595  0.50421547     1.01500
C234        C  0.50250453  0.90858135  0.41706439     1.00900
C235        C  0.50416313  0.89747929  0.57424769     1.02900
C236        C  0.51003199  0.05936375  0.58596991     1.01800
C237        C  0.50400013  0.06957016  0.42897303     1.00700
C238        C  0.57862533  0.99941501  0.41976859     1.00700
C239        C  0.58547527  0.96785892  0.57655066     1.03400
H240        H  0.54536762  0.03132392  0.46056739     0.30700
O241        O  0.53330267  0.01662385  0.47237968    -1.04500
H242        H  0.54807729  0.93588902  0.53999136     0.32800
O243        O  0.53540719  0.95070856  0.52890439    -1.07100
C244        C  0.26659124  0.97882023  0.75040795     0.03600
C245        C  0.28374653  0.95257278  0.74136931    -0.12500
C246        C  0.27732324  0.93711642  0.71348709     0.01100
C247        C  0.25087941  0.94587402  0.69664343    -0.11100
C248        C  0.23299543  0.97181669  0.70533433     0.03600
C249        C  0.24093439  0.98859689  0.73246845    -0.10500
H250        H  0.30391761  0.94619039  0.75493519     0.09200
H251        H  0.24558891  0.93406047  0.67498289     0.06700
H252        H  0.22835244  0.00961295  0.73867242     0.06600
C253        C  0.73951987  0.99242237  0.76658067     0.03600
C254        C  0.76653621  0.00601425  0.75390381    -0.12500
C255        C  0.77804195  0.99513092  0.72503178     0.01100
C256        C  0.76204197  0.97172432  0.70907454    -0.11100
C257        C  0.73444966  0.95941989  0.72077674     0.03600
C258        C  0.72445497  0.96861201  0.75038977    -0.10500
H259        H  0.77746215  0.02549172  0.76549350     0.09200
H260        H  0.76995764  0.96485963  0.68605866     0.06700
H261        H  0.70316772  0.95946976  0.76004166     0.06600
C262        C  0.26856705  0.01500960  0.21332488     0.03600
C263        C  0.23753588  0.02028329  0.22299228    -0.12500
C264        C  0.22861957  0.01227114  0.25363627     0.01100
C265        C  0.25032375  0.99828701  0.27347582    -0.11100
C266        C  0.28098173  0.99330120  0.26414453     0.03600
C267        C  0.28975995  0.00139631  0.23395407    -0.10500
H268        H  0.22124447  0.03181505  0.20766275     0.09200
H269        H  0.24344072  0.99253544  0.29704897     0.06700
H270        H  0.31348973  0.99784690  0.22634385     0.06600
O271        O  0.58226984  0.99633053  0.03201736    -0.79700
O272        O  0.40396396  0.00712692  0.02822055    -0.81200
O273        O  0.49578873  0.05060680  0.06941331    -0.78200
O274        O  0.48158617  0.94878267  0.06403505    -0.76600
O275        O  0.48244786  0.91218682  0.02513890    -0.78400
O276        O  0.49674992  0.09041062  0.03401084    -0.79300
O277        O  0.44053341  0.00761421  0.06690668    -0.80700
O278        O  0.54429827  0.99517309  0.06931435    -0.81000
Eu279      Eu  0.49280369  0.00066638  0.04300620     2.39200
O280        O  0.46149619  0.97211155  0.00902621    -0.88500
O281        O  0.52527574  0.03296208  0.01329693    -0.92100
C282        C  0.57317539  0.99442222  0.06052467     1.02600
C283        C  0.41216977  0.00908825  0.05692882     1.02400
C284        C  0.49625653  0.07960808  0.06197035     1.02400
C285        C  0.47844339  0.92077355  0.05359147     1.00200
H286        H  0.45042925  0.04797538  0.02463322     0.30000
O287        O  0.46318382  0.03466482  0.01168664    -1.00800
H288        H  0.53573650  0.95354964  0.02415537     0.30000
O289        O  0.52377449  0.96784929  0.01165642    -1.03400
O290        O  0.40599011  0.00731281  0.92800354    -0.80600
O291        O  0.58290335  0.99936166  0.93228269    -0.80200
O292        O  0.44333294  0.09420482  0.98249800    -0.78600
O293        O  0.44053264  0.91616276  0.97901350    -0.81900
O294        O  0.54294955  0.91267460  0.97444488    -0.79800
O295        O  0.54822886  0.08961988  0.98040426    -0.78400
O296        O  0.50416179  0.05722328  0.89351006    -0.80000
O297        O  0.48785762  0.95548202  0.88844219    -0.81900
O298        O  0.50399719  0.09386422  0.93249163    -0.78600
O299        O  0.48403869  0.91767621  0.92581277    -0.81300
O300        O  0.40648144  0.05621450  0.97829902    -0.77000
O301        O  0.58359944  0.04960201  0.98191736    -0.77100
O302        O  0.58107755  0.94936808  0.97774982    -0.76700
O303        O  0.40383434  0.95487748  0.97836318    -0.80200
O304        O  0.44286153  0.01129651  0.88975222    -0.79600
O305        O  0.54795506  0.00305589  0.89229126    -0.78000
Eu306      Eu  0.43138531  0.00535798  0.97843819     2.39800
Eu307      Eu  0.55575371  0.00011424  0.98170973     2.39600
Eu308      Eu  0.49527895  0.06697187  0.98190254     2.38400
Eu309      Eu  0.49205238  0.94012679  0.97692187     2.39900
Eu310      Eu  0.49467936  0.00558719  0.91562924     2.39800
O311        O  0.52482298  0.97143987  0.94664589    -0.92400
O312        O  0.46341486  0.03785348  0.94786582    -0.91300
C313        C  0.41429884  0.00987876  0.89935092     1.02800
C314        C  0.57593071  0.00081055  0.90327583     1.01500
C315        C  0.41474689  0.08481308  0.98050414     1.00900
C316        C  0.41216448  0.92595511  0.97934405     1.02900
C317        C  0.57178310  0.92109782  0.97493268     1.01800
C318        C  0.57630975  0.07865421  0.98024183     1.00700
C319        C  0.50830405  0.08504389  0.90409448     1.00700
C320        C  0.48252005  0.92739222  0.89761184     1.03400
H321        H  0.54024715  0.04547541  0.93895956     0.30700
O322        O  0.52567885  0.03340409  0.95085402    -1.04500
H323        H  0.44785490  0.96275755  0.93329382     0.32800
O324        O  0.46210671  0.97419114  0.94622244    -1.07100
C325        C  0.51103524  0.21795910  0.27503564     0.03600
C326        C  0.49332968  0.20120739  0.25336093    -0.12500
C327        C  0.48222048  0.21514991  0.22617296     0.01100
C328        C  0.48708720  0.24685434  0.22172591    -0.11100
C329        C  0.50618177  0.26378030  0.24178772     0.03600
C330        C  0.51806401  0.24951053  0.26894122    -0.10500
H331        H  0.48921995  0.17665000  0.25719658     0.09200
H332        H  0.47856296  0.25809623  0.20090972     0.06700
H333        H  0.53322095  0.26231194  0.28437737     0.06600
C334        C  0.47155640  0.72909802  0.21675437     0.03600
C335        C  0.45235787  0.74752059  0.19800915    -0.12500
C336        C  0.44427919  0.77778371  0.20675400     0.01100
C337        C  0.45240911  0.78820511  0.23648882    -0.11100
C338        C  0.47205070  0.77046561  0.25557768     0.03600
C339        C  0.48145386  0.74048454  0.24586816    -0.10500
H340        H  0.44638944  0.73929608  0.17490574     0.09200
H341        H  0.44635982  0.81155184  0.24381753     0.06700
H342        H  0.49821388  0.72744134  0.25940280     0.06600
C343        C  0.48996210  0.71668283  0.77250680     0.03600
C344        C  0.50137490  0.72276744  0.74214746    -0.12500
C345        C  0.49110656  0.74966737  0.72611970     0.01100
C346        C  0.46966219  0.76964203  0.74032972    -0.11100
C347        C  0.45947773  0.76476287  0.77072149     0.03600
C348        C  0.46870129  0.73765814  0.78617451    -0.10500
H349        H  0.51906249  0.70788234  0.73195316     0.09200
H350        H  0.46305961  0.79090518  0.72843003     0.06700
H351        H  0.46122905  0.73382097  0.80989805     0.06600
C352        C  0.54782497  0.21865138  0.72860088     0.03600
C353        C  0.57341741  0.20693967  0.74482166    -0.12500
C354        C  0.58421446  0.22155347  0.77179109     0.01100
C355        C  0.57393065  0.25183118  0.77837412    -0.11100
C356        C  0.54836261  0.26451465  0.76264052     0.03600
C357        C  0.53466815  0.24749671  0.73792785    -0.10500
H358        H  0.58202532  0.18390133  0.73887270     0.09200
H359        H  0.58270767  0.26387315  0.79867744     0.06700
H360        H  0.51341361  0.25575755  0.72727984     0.06600
O361        O  0.98642554  0.41372152  0.03687862    -0.79700
O362        O  0.98532156  0.59185521  0.02911399    -0.81200
O363        O  0.03390387  0.50878003  0.07568139    -0.78200
O364        O  0.93331439  0.50851896  0.06530530    -0.76600
O365        O  0.89832291  0.50850456  0.02517373    -0.78400
O366        O  0.07480855  0.50711935  0.04142095    -0.79300
O367        O  0.97807281  0.55571530  0.06746781    -0.80700
O368        O  0.98278727  0.45232365  0.07351792    -0.81000
Eu369      Eu  0.98598213  0.50273374  0.04557092     2.39200
O370        O  0.95827400  0.53192794  0.00900274    -0.88500
O371        O  0.02129982  0.46997185  0.01889327    -0.92100
C372        C  0.98328124  0.42332473  0.06519884     1.02600
C373        C  0.97939405  0.58406763  0.05746154     1.02400
C374        C  0.06306233  0.51036035  0.06887519     1.02400
C375        C  0.90576117  0.51156048  0.05415753     1.00200
H376        H  0.03126308  0.54752521  0.02908326     0.30000
O377        O  0.02016409  0.53331773  0.01576421    -1.00800
H378        H  0.94255922  0.45743001  0.02507776     0.30000
O379        O  0.95671725  0.46984122  0.01289033    -1.03400
O380        O  0.99777609  0.58793098  0.92936538    -0.80600
O381        O  0.99781689  0.41007832  0.93565688    -0.80200
O382        O  0.08079148  0.55211930  0.98941008    -0.78600
O383        O  0.90362605  0.55182399  0.96837958    -0.81900
O384        O  0.90376627  0.44736033  0.97554252    -0.79800
O385        O  0.08025935  0.44874408  0.99111779    -0.78400
O386        O  0.05116085  0.50523903  0.89898825    -0.80000
O387        O  0.95081477  0.48516532  0.89016666    -0.81900
O388        O  0.08503141  0.50499389  0.94006787    -0.78600
O389        O  0.91064098  0.48274561  0.92523407    -0.81300
O390        O  0.04310698  0.58920098  0.98244927    -0.77000
O391        O  0.04249456  0.41144073  0.98978227    -0.77100
O392        O  0.94267105  0.41098702  0.97913292    -0.76700
O393        O  0.94141177  0.58847596  0.97588187    -0.80200
O394        O  0.99724486  0.55063214  0.89124080    -0.79600
O395        O  0.00451201  0.44534001  0.89628563    -0.78000
Eu396      Eu  0.99198372  0.56312035  0.97992434     2.39800
Eu397      Eu  0.99235238  0.43796850  0.98531800     2.39600
Eu398      Eu  0.05501027  0.50072772  0.98843649     2.38400
Eu399      Eu  0.92835524  0.49994848  0.97662314     2.39900
Eu400      Eu  0.99803804  0.49880342  0.91868229     2.39800
O401        O  0.96506127  0.46933095  0.95044585    -0.92400
O402        O  0.02628516  0.53055226  0.95280715    -0.91300
C403        C  0.99865155  0.57938603  0.90066069     1.02800
C404        C  0.00274120  0.41714784  0.90692719     1.01500
C405        C  0.07164619  0.58069396  0.98648773     1.00900
C406        C  0.91312265  0.58030300  0.97089038     1.02900
C407        C  0.91392597  0.41887094  0.97597793     1.01800
C408        C  0.07104406  0.42008218  0.99108816     1.00700
C409        C  0.07852065  0.50761703  0.91089515     1.00700
C410        C  0.92292879  0.47784014  0.89825396     1.03400
H411        H  0.04096713  0.45523482  0.94354017     0.30700
O412        O  0.02652788  0.46842013  0.95475718    -1.04500
H413        H  0.95065368  0.54319509  0.93130209     0.32800
O414        O  0.96238324  0.53099783  0.94600497    -1.07100
C415        C  0.77704966  0.50637766  0.26672183     0.03600
C416        C  0.74666615  0.49502769  0.26151820    -0.12500
C417        C  0.73034977  0.50412605  0.23442291     0.01100
C418        C  0.74438949  0.52411814  0.21302415    -0.11100
C419        C  0.77470641  0.53445632  0.21723407     0.03600
C420        C  0.79023932  0.52662428  0.24478292    -0.10500
H421        H  0.73666523  0.47813736  0.27722253     0.09200
H422        H  0.73242048  0.52946479  0.19148174     0.06700
H423        H  0.81373553  0.53445752  0.24848326     0.06600
C424        C  0.25991917  0.48896213  0.21999942     0.03600
C425        C  0.24105145  0.51033269  0.20421134    -0.12500
C426        C  0.21184370  0.51885507  0.21600431     0.01100
C427        C  0.20259186  0.50708080  0.24481124    -0.11100
C428        C  0.22099403  0.48553125  0.26089601     0.03600
C429        C  0.25003899  0.47654854  0.24862960    -0.10500
H430        H  0.24861561  0.51853621  0.18168315     0.09200
H431        H  0.17986814  0.51315854  0.25401299     0.06700
H432        H  0.26392679  0.45904854  0.26028599     0.06600
C433        C  0.28273327  0.50655287  0.76795270     0.03600
C434        C  0.26464583  0.52846954  0.78425486    -0.12500
C435        C  0.23628946  0.53910253  0.77229820     0.01100
C436        C  0.22848687  0.53127663  0.74173813    -0.11100
C437        C  0.24500074  0.50818646  0.72566571     0.03600
C438        C  0.27241314  0.49565363  0.73871785    -0.10500
H439        H  0.27117077  0.53467274  0.80782075     0.09200
H440        H  0.20697522  0.53963105  0.73177193     0.06700
H441        H  0.28440575  0.47656907  0.72727383     0.06600
C442        C  0.77118637  0.44939817  0.72709732     0.03600
C443        C  0.78778634  0.42344682  0.73754072    -0.12500
C444        C  0.78269551  0.41147624  0.76720348     0.01100
C445        C  0.75619587  0.42109889  0.78364723    -0.11100
C446        C  0.73820422  0.44644135  0.77360605     0.03600
C447        C  0.74598645  0.46107577  0.74509715    -0.10500
H448        H  0.80845302  0.41621882  0.72484941     0.09200
H449        H  0.75148861  0.41144068  0.80634643     0.06700
H450        H  0.73434469  0.48238794  0.73831363     0.06600
C451        C  0.22296578  0.26897582  0.95848958     0.03600
C452        C  0.22816485  0.23827863  0.96909753    -0.12500
C453        C  0.25629846  0.22300707  0.96139452     0.01100
C454        C  0.27847577  0.23824032  0.94318682    -0.11100
C455        C  0.27458630  0.26933690  0.93471527     0.03600
C456        C  0.24608164  0.28381096  0.94085647    -0.10500
H457        H  0.21177103  0.22742328  0.98477636     0.09200
H458        H  0.30026659  0.22645564  0.93848719     0.06700
H459        H  0.24291157  0.30797268  0.93435155     0.06600
O460        O  0.49915373  0.43184924  0.09102179    -0.79700
O461        O  0.51423249  0.43514148  0.91343103    -0.81200
O462        O  0.45643895  0.39295277  0.99072623    -0.78200
O463        O  0.55665734  0.39505887  0.01041619    -0.76600
O464        O  0.59377768  0.43271009  0.01601095    -0.78400
O465        O  0.41978466  0.43162890  0.98793787    -0.79300
O466        O  0.51004165  0.39551396  0.94877313    -0.80700
O467        O  0.50418853  0.39320359  0.05435349    -0.81000
Eu468      Eu  0.50603125  0.41910742  0.00217329     2.39200
O469        O  0.54091391  0.45112063  0.97391226    -0.88500
O470        O  0.47139882  0.44966412  0.03275199    -0.92100
C471        C  0.50178613  0.40304698  0.08287144     1.02600
C472        C  0.51260855  0.40613862  0.92060789     1.02400
C473        C  0.42880552  0.40318460  0.98485272     1.02400
C474        C  0.58445631  0.40428654  0.01631631     1.00200
H475        H  0.46746245  0.44041440  0.95413347     0.30000
O476        O  0.47859451  0.45258197  0.96930399    -1.00800
H477        H  0.54480377  0.43935621  0.05054226     0.30000
O478        O  0.53328387  0.45212151  0.03615056    -1.03400
O479        O  0.51185029  0.53552886  0.91583495    -0.80600
O480        O  0.49927772  0.53443527  0.09264149    -0.80200
O481        O  0.42271576  0.48262917  0.94521491    -0.78600
O482        O  0.59996156  0.48440569  0.96021767    -0.81900
O483        O  0.58943579  0.47918843  0.06182404    -0.79800
O484        O  0.41329405  0.47875845  0.04812172    -0.78400
O485        O  0.45297490  0.56979805  0.99454537    -0.80000
O486        O  0.55331916  0.57157778  0.01740354    -0.81900
O487        O  0.41623847  0.53141866  0.99337541    -0.78600
O488        O  0.59115497  0.53402699  0.02068034    -0.81300
O489        O  0.46359929  0.48591011  0.91112249    -0.77000
O490        O  0.44768455  0.48275253  0.08843952    -0.77100
O491        O  0.54870262  0.48283608  0.09608878    -0.76700
O492        O  0.56513318  0.48651811  0.92016592    -0.80200
O493        O  0.51035685  0.57360669  0.95309761    -0.79600
O494        O  0.50072790  0.57165314  0.05465902    -0.78000
Eu495      Eu  0.51221357  0.48468758  0.94118401     2.39800
Eu496      Eu  0.49979797  0.48311542  0.06623123     2.39600
Eu497      Eu  0.44315560  0.48192172  0.99879457     2.38400
Eu498      Eu  0.56856640  0.48321868  0.00874881     2.39900
Eu499      Eu  0.50448844  0.54649840  0.00374013     2.39800
O500        O  0.53323345  0.51412564  0.03693192    -0.92400
O501        O  0.47679889  0.51411575  0.97041083    -0.91300
C502        C  0.51147334  0.56426472  0.92444348     1.02800
C503        C  0.50010982  0.56299891  0.08335369     1.01500
C504        C  0.43431598  0.48435254  0.91751338     1.00900
C505        C  0.59301798  0.48562179  0.93094940     1.02900
C506        C  0.57791132  0.48033894  0.08956081     1.01800
C507        C  0.42006563  0.48020891  0.07741168     1.00700
C508        C  0.42488353  0.55993954  0.99120848     1.00700
C509        C  0.58120937  0.56225795  0.02317897     1.03400
H510        H  0.45596768  0.52775488  0.04458833     0.30700
O511        O  0.47033070  0.51498286  0.03284001    -1.04500
H512        H  0.55480781  0.52997564  0.96400001     0.32800
O513        O  0.54075241  0.51653614  0.97512697    -1.07100
C514        C  0.71618753  0.76119475  0.98449191     0.03600
C515        C  0.70442402  0.74245425  0.00840861    -0.12500
C516        C  0.72011003  0.71550489  0.01790853     0.01100
C517        C  0.74919490  0.70881974  0.00501777    -0.11100
C518        C  0.76100390  0.72664025  0.98054803     0.03600
C519        C  0.74467907  0.75317202  0.97028709    -0.10500
H520        H  0.68182476  0.74792742  0.01824026     0.09200
H521        H  0.76186102  0.68821654  0.01209780     0.06700
H522        H  0.75324281  0.76645334  0.95071586     0.06600
C523        C  0.26959156  0.76505822  0.97376201     0.03600
C524        C  0.28914076  0.74327262  0.95920703    -0.12500
C525        C  0.27967333  0.71256576  0.95418839     0.01100
C526        C  0.24921271  0.70441773  0.96142430    -0.11100
C527        C  0.22890380  0.72543336  0.97605405     0.03600
C528        C  0.23900505  0.75622195  0.98225937    -0.10500
H529        H  0.31267079  0.75011041  0.95381599     0.09200
H530        H  0.24182828  0.68057776  0.95784727     0.06700
H531        H  0.22421051  0.77220763  0.99507696     0.06600
C532        C  0.77403258  0.25854770  0.97465005     0.03600
C533        C  0.75882029  0.27262816  0.99988675    -0.12500
C534        C  0.73185240  0.25978102  0.01248556     0.01100
C535        C  0.72135923  0.23135756  0.00086153    -0.11100
C536        C  0.73582880  0.21698657  0.97538733     0.03600
C537        C  0.76246872  0.23055302  0.96199581    -0.10500
H538        H  0.76709197  0.29492630  0.00804487     0.09200
H539        H  0.70006145  0.22148111  0.00998646     0.06700
H540        H  0.77308389  0.22035906  0.94146552     0.06600
C541        C  0.66652141  0.29804532  0.03976186     0.30200
C542        C  0.63501983  0.30423228  0.03519497    -0.36100
C543        C  0.62657293  0.33556075  0.03523866     0.16200
C544        C  0.64738163  0.35930516  0.04067038     0.22000
C545        C  0.67864940  0.35300463  0.04707817    -0.34200
C546        C  0.68741451  0.32157480  0.04583337     0.16100
O547        O  0.68023923  0.27203411  0.03144873    -0.26200
C548        C  0.71031438  0.27873011  0.03159094     0.05900
C549        C  0.71616588  0.30903974  0.04167080    -0.31100
O550        O  0.63537383  0.38691552  0.03488687    -0.22900
C551        C  0.60672557  0.38048048  0.02548997    -0.02900
C552        C  0.59987135  0.34901548  0.02559557    -0.17400
H553        H  0.61900736  0.28621214  0.02813115     0.20600
H554        H  0.69555862  0.37144161  0.04919028     0.19000
H555        H  0.73776967  0.32174216  0.04114374     0.18900
H556        H  0.57879505  0.33764387  0.01805161     0.14800
C557        C  0.32213797  0.64315650  0.95333498     0.30200
C558        C  0.32677866  0.61194073  0.96172878    -0.36100
C559        C  0.35754018  0.60339757  0.96833252     0.16200
C560        C  0.38191474  0.62407347  0.96650508     0.22000
C561        C  0.37738384  0.65480445  0.95704389    -0.34200
C562        C  0.34674819  0.66336534  0.95058683     0.16100
O563        O  0.29516260  0.65760387  0.95174001    -0.26200
C564        C  0.30255653  0.68745337  0.94790550     0.05900
C565        C  0.33451636  0.69206513  0.94608920    -0.31100
O566        O  0.40849378  0.61180988  0.97526233    -0.22900
C567        C  0.40119182  0.58281482  0.98268676    -0.02900
C568        C  0.36981721  0.57613676  0.97873804    -0.17400
H569        H  0.30761333  0.59601653  0.96475850     0.20600
H570        H  0.39622993  0.67136118  0.95639168     0.19000
H571        H  0.34735792  0.71359234  0.94547973     0.18900
H572        H  0.35791499  0.55438795  0.98280444     0.14800
C573        C  0.66225901  0.66838054  0.04794267     0.30200
C574        C  0.63070911  0.66105918  0.04969692    -0.36100
C575        C  0.62345757  0.62961082  0.04630295     0.16200
C576        C  0.64579750  0.60672343  0.04244011     0.22000
C577        C  0.67746812  0.61390661  0.04199475    -0.34200
C578        C  0.68468130  0.64554660  0.04450422     0.16100
O579        O  0.67311402  0.69636430  0.04275544    -0.26200
C580        C  0.70282574  0.69171853  0.03559343     0.05900
C581        C  0.71148106  0.66039673  0.03723908    -0.31100
O582        O  0.63375894  0.57968468  0.03488014    -0.22900
C583        C  0.60346288  0.58550322  0.03359838    -0.02900
C584        C  0.59561961  0.61603722  0.04090711    -0.17400
H585        H  0.61291761  0.67894918  0.05014561     0.20600
H586        H  0.69497895  0.59647299  0.03677560     0.19000
H587        H  0.73278689  0.64937742  0.02949319     0.18900
H588        H  0.57296427  0.62707165  0.04018390     0.14800
C589        C  0.38604432  0.34208400  0.95242838     0.30200
C590        C  0.37868327  0.31122147  0.94519328    -0.36100
C591        C  0.34871805  0.30622442  0.93357713     0.16200
C592        C  0.32757757  0.32998541  0.92892034     0.22000
C593        C  0.33543171  0.36102123  0.93478023    -0.34200
C594        C  0.36507591  0.36588260  0.94711240     0.16100
O595        O  0.41128124  0.35162908  0.96690871    -0.26200
C596        C  0.40611394  0.38186355  0.97119433     0.05900
C597        C  0.37790190  0.39199324  0.95905917    -0.31100
O598        O  0.29914112  0.31966682  0.92483896    -0.22900
C599        C  0.30185230  0.28886489  0.92698721    -0.02900
C600        C  0.33257009  0.27931222  0.93148311    -0.17400
H601        H  0.39420873  0.29216131  0.95076594     0.20600
H602        H  0.31860006  0.37970619  0.93275926     0.19000
H603        H  0.36808186  0.41524141  0.95939345     0.18900
H604        H  0.34137982  0.25650069  0.93741960     0.14800
C605        C  0.69687390  0.46697328  0.84140938     0.30200
C606        C  0.69179422  0.46726735  0.87376693    -0.36100
C607        C  0.66190617  0.47594195  0.88371434     0.16200
C608        C  0.63860485  0.48353625  0.86309593     0.22000
C609        C  0.64374512  0.48332088  0.83069533    -0.34200
C610        C  0.67377239  0.47487744  0.82070598     0.16100
O611        O  0.72243444  0.45764987  0.82729375    -0.26200
C612        C  0.71610053  0.45963688  0.79698187     0.05900
C613        C  0.68604246  0.47052161  0.79142214    -0.31100
O614        O  0.61190125  0.48901119  0.87723575    -0.22900
C615        C  0.61805541  0.48507453  0.90735706    -0.02900
C616        C  0.64895874  0.47707277  0.91283189    -0.17400
H617        H  0.70971739  0.46039153  0.89000814     0.20600
H618        H  0.62535067  0.48860308  0.81440592     0.19000
H619        H  0.67434072  0.47286945  0.76929636     0.18900
H620        H  0.65983092  0.47137432  0.93478594     0.14800
C621        C  0.37178070  0.47602310  0.86596975     0.30200
C622        C  0.34137280  0.46854989  0.85716771    -0.36100
C623        C  0.33280839  0.47659867  0.82674647     0.16200
C624        C  0.35270156  0.49114531  0.80626145     0.22000
C625        C  0.38348416  0.49789541  0.81485106    -0.34200
C626        C  0.39207715  0.48981518  0.84535494     0.16100
O627        O  0.38380519  0.47251463  0.89395496    -0.26200
C628        C  0.41237326  0.48386568  0.89126333     0.05900
C629        C  0.41887248  0.49487814  0.86149738    -0.31100
O630        O  0.33832276  0.50094872  0.78087442    -0.22900
C631        C  0.30895029  0.49211570  0.78493651    -0.02900
C632        C  0.30438538  0.47671035  0.81303171    -0.17400
H633        H  0.32501835  0.45855237  0.87343468     0.20600
H634        H  0.39911443  0.51011408  0.79943433     0.19000
H635        H  0.43994553  0.50578934  0.85326422     0.18900
H636        H  0.28250116  0.47002056  0.82345203     0.14800
C637        C  0.37205795  0.48207109  0.14329482     0.30200
C638        C  0.36397373  0.48900048  0.17423695    -0.36100
C639        C  0.33380563  0.48082075  0.18338093     0.16200
C640        C  0.31313938  0.46670619  0.16337973     0.22000
C641        C  0.32129572  0.45961014  0.13251610    -0.34200
C642        C  0.35128741  0.46814215  0.12328928     0.16100
O643        O  0.39872063  0.48839660  0.12967496    -0.26200
C644        C  0.39487286  0.47873478  0.10047472     0.05900
C645        C  0.36572367  0.46607636  0.09507382    -0.31100
O646        O  0.28503890  0.46486266  0.17529779    -0.22900
C647        C  0.28765146  0.47753801  0.20346135    -0.02900
C648        C  0.31754233  0.48781350  0.20983451    -0.17400
H649        H  0.37971591  0.50096761  0.18973592     0.20600
H650        H  0.30488088  0.44949181  0.11641079     0.19000
H651        H  0.35673117  0.45635667  0.07367259     0.18900
H652        H  0.32516676  0.50168304  0.22941381     0.14800
C653        C  0.62037626  0.48884811  0.15858416     0.30200
C654        C  0.62811627  0.50219398  0.18742293    -0.36100
C655        C  0.65656763  0.49272744  0.20038534     0.16200
C656        C  0.67596904  0.47151108  0.18593251     0.22000
C657        C  0.66833140  0.45832246  0.15700577    -0.34200
C658        C  0.64008867  0.46801887  0.14393164     0.16100
O659        O  0.59561407  0.49542719  0.14173756    -0.26200
C660        C  0.59974796  0.47895019  0.11577430     0.05900
C661        C  0.62710574  0.46155284  0.11574839    -0.31100
O662        O  0.70322313  0.46937411  0.19967276    -0.22900
C663        C  0.70155811  0.48925781  0.22349218    -0.02900
C664        C  0.67285825  0.50440128  0.22502080    -0.17400
H665        H  0.61359748  0.51975758  0.19832342     0.20600
H666        H  0.68411784  0.44285288  0.14477002     0.19000
H667        H  0.63615456  0.44657033  0.09752287     0.18900
H668        H  0.66667155  0.52435622  0.23921041     0.14800
C669        C  0.85170652  0.63188101  0.95434218     0.30200
C670        C  0.82275871  0.64146345  0.94272246    -0.36100
C671        C  0.81376684  0.67221280  0.94966870     0.16200
C672        C  0.83184947  0.69205745  0.96716351     0.22000
C673        C  0.86113915  0.68276509  0.97800225    -0.34200
C674        C  0.87014163  0.65214110  0.97095799     0.16100
O675        O  0.86384801  0.60359736  0.95241072    -0.26200
C676        C  0.89055680  0.60596935  0.96774226     0.05900
C677        C  0.89562521  0.63565008  0.97972836    -0.31100
O678        O  0.81647034  0.71705647  0.97646150    -0.22900
C679        C  0.78828105  0.71369540  0.96435044    -0.02900
C680        C  0.78555544  0.68636413  0.94700842    -0.17400
H681        H  0.80754562  0.62553738  0.93063583     0.20600
H682        H  0.87504290  0.69767502  0.99270388     0.19000
H683        H  0.91507718  0.64371838  0.99342958     0.18900
H684        H  0.76435249  0.67587197  0.93858001     0.14800
C685        C  0.87463519  0.34723253  0.97210926     0.30200
C686        C  0.87083329  0.31499510  0.97622246    -0.36100
C687        C  0.84244990  0.30248679  0.96622608     0.16200
C688        C  0.81933743  0.32057223  0.95331251     0.22000
C689        C  0.82312282  0.35279835  0.94922163    -0.34200
C690        C  0.85148492  0.36530835  0.95922262     0.16100
O691        O  0.89920170  0.36371352  0.98000932    -0.26200
C692        C  0.89169672  0.39287230  0.97239966     0.05900
C693        C  0.86215466  0.39525157  0.95941946    -0.31100
O694        O  0.79312413  0.30522505  0.95002188    -0.22900
C695        C  0.79931852  0.27674723  0.96064789    -0.02900
C696        C  0.82989525  0.27369144  0.97073484    -0.17400
H697        H  0.88841361  0.30081850  0.98734377     0.20600
H698        H  0.80468838  0.36732457  0.94009611     0.19000
H699        H  0.85054097  0.41588086  0.95080691     0.18900
H700        H  0.83984632  0.25469966  0.98393054     0.14800
C701        C  0.11666420  0.64920824  0.98400478     0.30200
C702        C  0.12446533  0.67979917  0.97515568    -0.36100
C703        C  0.15396833  0.69047867  0.98437995     0.16200
C704        C  0.17405434  0.67229504  0.00150831     0.22000
C705        C  0.16624120  0.64188280  0.01043752    -0.34200
C706        C  0.13714327  0.63106317  0.00070966     0.16100
O707        O  0.09099256  0.63402140  0.97669310    -0.26200
C708        C  0.09528648  0.60562420  0.98850429     0.05900
C709        C  0.12373181  0.60247692  0.00356263    -0.31100
O710        O  0.20180083  0.68477067  0.00402369    -0.22900
C711        C  0.19996204  0.71150610  0.98844942    -0.02900
C712        C  0.17049994  0.71637842  0.97582759    -0.17400
H713        H  0.10918333  0.69375348  0.96084901     0.20600
H714        H  0.18250482  0.62704422  0.02264835     0.19000
H715        H  0.13305754  0.58213317  0.01511189     0.18900
H716        H  0.16359238  0.73410385  0.95937075     0.14800
C717        C  0.11498625  0.35082024  0.98795625     0.30200
C718        C  0.12064821  0.31877595  0.98289153    -0.36100
C719        C  0.15209498  0.30977941  0.98012588     0.16200
C720        C  0.17584981  0.33108942  0.98232531     0.22000
C721        C  0.17024665  0.36266692  0.98800067    -0.34200
C722        C  0.13915874  0.37158373  0.99059480     0.16100
O723        O  0.08766433  0.36501398  0.98862506    -0.26200
C724        C  0.09466591  0.39511964  0.99177917     0.05900
C725        C  0.12637761  0.40045012  0.99328771    -0.31100
O726        O  0.20314077  0.31890914  0.97621091    -0.22900
C727        C  0.19746546  0.28914952  0.97015605    -0.02900
C728        C  0.16596459  0.28182650  0.97253091    -0.17400
H729        H  0.10190557  0.30233804  0.98000856     0.20600
H730        H  0.18891496  0.37941569  0.98889782     0.19000
H731        H  0.13831284  0.42251354  0.99474293     0.18900
H732        H  0.15483705  0.25988329  0.96740280     0.14800
C733        C  0.87300678  0.42691026  0.85991451     0.30200
C734        C  0.84687608  0.40792310  0.85686621    -0.36100
C735        C  0.83827908  0.40042320  0.82636748     0.16200
C736        C  0.85495441  0.41021243  0.80074156     0.22000
C737        C  0.88258224  0.42699963  0.80399694    -0.34200
C738        C  0.89044693  0.43548300  0.83438959     0.16100
O739        O  0.88152621  0.44146021  0.88545534    -0.26200
C740        C  0.90471842  0.45954965  0.87616696     0.05900
C741        C  0.91166227  0.45641209  0.84473885    -0.31100
O742        O  0.83824156  0.40977457  0.77524174    -0.22900
C743        C  0.81031647  0.40017068  0.78439345    -0.02900
C744        C  0.80972434  0.39227787  0.81583985    -0.17400
H745        H  0.83204504  0.40279808  0.87655821     0.20600
H746        H  0.89461338  0.43653153  0.78406546     0.19000
H747        H  0.92901863  0.46866086  0.83132673     0.18900
H748        H  0.78976323  0.38740132  0.83030267     0.14800
C749        C  0.12630403  0.53335025  0.85044058     0.30200
C750        C  0.13361767  0.54311766  0.82021873    -0.36100
C751        C  0.16516984  0.54853364  0.81428595     0.16200
C752        C  0.18781216  0.54500029  0.83664399     0.22000
C753        C  0.18037322  0.53610323  0.86705517    -0.34200
C754        C  0.14898914  0.53009332  0.87282990     0.16100
O755        O  0.09869406  0.52491680  0.86053345    -0.26200
C756        C  0.10384058  0.51603546  0.88971204     0.05900
C757        C  0.13472316  0.51877972  0.89862382    -0.31100
O758        O  0.21601027  0.54550832  0.82488813    -0.22900
C759        C  0.21173002  0.54912744  0.79446426    -0.02900
C760        C  0.18029306  0.55209910  0.78676944    -0.17400
H761        H  0.11623310  0.54446024  0.80211277     0.20600
H762        H  0.19811019  0.53193030  0.88436764     0.19000
H763        H  0.14508770  0.51336774  0.92089136     0.18900
H764        H  0.16955046  0.55231982  0.76406623     0.14800
C765        C  0.12496706  0.53370415  0.11532452     0.30200
C766        C  0.15561785  0.54241262  0.12140907    -0.36100
C767        C  0.16416955  0.54300746  0.15276616     0.16200
C768        C  0.14374831  0.53597582  0.17649549     0.22000
C769        C  0.11261360  0.52879867  0.17047282    -0.34200
C770        C  0.10425151  0.52757786  0.13906507     0.16100
O771        O  0.11330400  0.52794949  0.08769719    -0.26200
C772        C  0.08469965  0.51820415  0.09377508     0.05900
C773        C  0.07761949  0.51768178  0.12533347    -0.31100
O774        O  0.15807483  0.53054587  0.20287162    -0.22900
C775        C  0.18807719  0.53372184  0.19608473    -0.02900
C776        C  0.19305070  0.54275500  0.16535797    -0.17400
H777        H  0.17235226  0.54570567  0.10288544     0.20600
H778        H  0.09687734  0.52167635  0.18876657     0.19000
H779        H  0.05634607  0.51024147  0.13646917     0.18900
H780        H  0.21469742  0.54423691  0.15265943     0.14800
C781        C  0.86495168  0.54018541  0.11819122     0.30200
C782        C  0.86231474  0.55103361  0.14874651    -0.36100
C783        C  0.83217816  0.55319759  0.16059492     0.16200
C784        C  0.80630874  0.54542410  0.14343395     0.22000
C785        C  0.80886675  0.53630117  0.11206414    -0.34200
C786        C  0.83921582  0.53367028  0.10029420     0.16100
O787        O  0.89105993  0.53268336  0.10428538    -0.26200
C788        C  0.88227473  0.52148459  0.07687597     0.05900
C789        C  0.85019895  0.52177829  0.07279006    -0.31100
O790        O  0.78164049  0.54158467  0.16115602    -0.22900
C791        C  0.79181902  0.54679337  0.18999181    -0.02900
C792        C  0.82294524  0.55539962  0.19068443    -0.17400
H793        H  0.88253070  0.55474620  0.16319510     0.20600
H794        H  0.78889959  0.52884674  0.09878894     0.19000
H795        H  0.83701300  0.51350212  0.05305165     0.18900
H796        H  0.83802512  0.55829034  0.21054117     0.14800
C797        C  0.52537497  0.36749349  0.84943674     0.30200
C798        C  0.53922992  0.36288056  0.82006965    -0.36100
C799        C  0.53275742  0.33448925  0.80511955     0.16200
C800        C  0.51341547  0.31247733  0.81793400     0.22000
C801        C  0.49965806  0.31709161  0.84737326    -0.34200
C802        C  0.50679132  0.34509607  0.86270759     0.16100
O803        O  0.52961160  0.39158847  0.86802301    -0.26200
C804        C  0.51421425  0.38434646  0.89393993     0.05900
C805        C  0.49950244  0.35560625  0.89199226    -0.31100
O806        O  0.51341585  0.28621068  0.80187749    -0.22900
C807        C  0.53286768  0.29119974  0.77824010    -0.02900
C808        C  0.54578225  0.32090830  0.77932522    -0.17400
H809        H  0.55511618  0.37965705  0.81023748     0.20600
H810        H  0.48572097  0.29929581  0.85829639     0.19000
H811        H  0.48542166  0.34426185  0.90945583     0.18900
H812        H  0.56474063  0.32977199  0.76539205     0.14800
C813        C  0.50640892  0.64802321  0.81428691     0.30200
C814        C  0.50433532  0.61617412  0.82162541    -0.36100
C815        C  0.50897380  0.60828187  0.85309777     0.16200
C816        C  0.51499049  0.63011575  0.87589204     0.22000
C817        C  0.51769182  0.66172360  0.86846643    -0.34200
C818        C  0.51338400  0.66954998  0.83707057     0.16100
O819        O  0.49953530  0.66128259  0.78725117    -0.26200
C820        C  0.50257763  0.69169930  0.79286107     0.05900
C821        C  0.51154085  0.69787087  0.82337858    -0.31100
O822        O  0.51670988  0.61788571  0.90406458    -0.22900
C823        C  0.51207757  0.58765262  0.89927582    -0.02900
C824        C  0.50724031  0.58040613  0.86799465    -0.17400
H825        H  0.49839287  0.59888792  0.80429929     0.20600
H826        H  0.52184868  0.67920657  0.88612947     0.19000
H827        H  0.51357837  0.72034450  0.83461763     0.18900
H828        H  0.50238214  0.55787715  0.85782837     0.14800
C829        C  0.49961858  0.67516679  0.16320152     0.30200
C830        C  0.50704998  0.66598978  0.13284774    -0.36100
C831        C  0.50506617  0.63416967  0.12660847     0.16200
C832        C  0.49673375  0.61253220  0.14872366     0.22000
C833        C  0.48965120  0.62176340  0.17943828    -0.34200
C834        C  0.49132066  0.65389989  0.18570261     0.16100
O835        O  0.49609280  0.70405165  0.17251833    -0.26200
C836        C  0.48561805  0.70170477  0.20152692     0.05900
C837        C  0.48235493  0.67099249  0.21121252    -0.31100
O838        O  0.49433903  0.58417697  0.13686362    -0.22900
C839        C  0.50097469  0.58804726  0.10680114    -0.02900
C840        C  0.50797975  0.61864205  0.09928185    -0.17400
H841        H  0.51233966  0.68274316  0.11486107     0.20600
H842        H  0.48193430  0.60528601  0.19676320     0.19000
H843        H  0.47192943  0.66262952  0.23251805     0.18900
H844        H  0.51356089  0.62821781  0.07668465     0.14800
C845        C  0.50443567  0.33214200  0.20127362     0.30200
C846        C  0.48727676  0.35567987  0.18645907    -0.36100
C847        C  0.49645658  0.36317128  0.15601663     0.16200
C848        C  0.52076194  0.34850699  0.14090026     0.22000
C849        C  0.53860036  0.32564578  0.15613991    -0.34200
C850        C  0.52966816  0.31843019  0.18684756     0.16100
O851        O  0.49603098  0.31732801  0.22682847    -0.26200
C852        C  0.51648955  0.29408143  0.22951028     0.05900
C853        C  0.53846504  0.29438140  0.20554466    -0.31100
O854        O  0.52475919  0.35885407  0.11212006    -0.22900
C855        C  0.50276838  0.38060961  0.10891880    -0.02900
C856        C  0.48467759  0.38426125  0.13559742    -0.17400
H857        H  0.46710167  0.36628800  0.19728994     0.20600
H858        H  0.55740966  0.31348483  0.14449128     0.19000
H859        H  0.55451309  0.27585652  0.19942062     0.18900
H860        H  0.46611275  0.40088209  0.13965161     0.14800
C861        C  0.67543744  0.17020670  0.95316546     0.30200
C862        C  0.64336905  0.16633665  0.94863933    -0.36100
C863        C  0.63052914  0.13881718  0.96034098     0.16200
C864        C  0.64818129  0.11627731  0.97483062     0.22000
C865        C  0.68030653  0.11998638  0.97907144    -0.34200
C866        C  0.69309918  0.14775732  0.96777075     0.16100
O867        O  0.69072288  0.19639807  0.94935927    -0.26200
C868        C  0.71871095  0.19090135  0.96141368     0.05900
C869        C  0.72152093  0.16075304  0.97291295    -0.31100
O870        O  0.63133937  0.09261265  0.98443714    -0.22900
C871        C  0.60242342  0.10029671  0.97646307    -0.02900
C872        C  0.60049822  0.12885094  0.96140077    -0.17400
H873        H  0.62909839  0.18438399  0.93839028     0.20600
H874        H  0.69408345  0.10306646  0.99162854     0.19000
H875        H  0.73984994  0.15160569  0.98751087     0.18900
H876        H  0.58010879  0.14015200  0.95189070     0.14800
C877        C  0.34538017  0.87896388  0.97627554     0.30200
C878        C  0.31523922  0.87001551  0.96727056    -0.36100
C879        C  0.30539589  0.84038434  0.97709685     0.16200
C880        C  0.32408789  0.82104299  0.99454198     0.22000
C881        C  0.35418458  0.82986525  0.00338215    -0.34200
C882        C  0.36400352  0.85925955  0.99342230     0.16100
O883        O  0.35954185  0.90529439  0.96917646    -0.26200
C884        C  0.38771100  0.90212717  0.98162259     0.05900
C885        C  0.39178640  0.87388060  0.99686120    -0.31100
O886        O  0.31191332  0.79325932  0.99837732    -0.22900
C887        C  0.28475660  0.79445506  0.98354365    -0.02900
C888        C  0.27944493  0.82339406  0.96984995    -0.17400
H889        H  0.30081632  0.88476751  0.95287401     0.20600
H890        H  0.36934361  0.81436394  0.01618119     0.19000
H891        H  0.41225046  0.86546392  0.00885633     0.18900
H892        H  0.26100193  0.82976921  0.95400861     0.14800
C893        C  0.61691403  0.85344766  0.96506272     0.30200
C894        C  0.62219296  0.82145638  0.96163344    -0.36100
C895        C  0.65312855  0.81152049  0.96407773     0.16200
C896        C  0.67752552  0.83159596  0.96922061     0.22000
C897        C  0.67232477  0.86386414  0.97187545    -0.34200
C898        C  0.64116931  0.87379412  0.96981927     0.16100
O899        O  0.58946549  0.86721881  0.96618364    -0.26200
C900        C  0.59603467  0.89690057  0.97168880     0.05900
C901        C  0.62788924  0.90239845  0.97402627    -0.31100
O902        O  0.70394070  0.81666851  0.97472873    -0.22900
C903        C  0.69622415  0.78672099  0.97294105    -0.02900
C904        C  0.66496843  0.78230424  0.96617403    -0.17400
H905        H  0.60326107  0.80520602  0.95893942     0.20600
H906        H  0.69098072  0.87987280  0.97694359     0.19000
H907        H  0.63947742  0.92416097  0.97893565     0.18900
H908        H  0.65227735  0.76062104  0.96570931     0.14800
C909        C  0.34313226  0.12302949  0.97200997     0.30200
C910        C  0.31314068  0.12728296  0.95983927    -0.36100
C911        C  0.29608478  0.15264666  0.97161933     0.16200
C912        C  0.30767882  0.17225254  0.99414894     0.22000
C913        C  0.33766539  0.16781766  0.00652504    -0.34200
C914        C  0.35503123  0.14282967  0.99421094     0.16100
O915        O  0.36308582  0.10118247  0.96369500    -0.26200
C916        C  0.38853158  0.10720060  0.98021065     0.05900
C917        C  0.38495025  0.13304301  0.99962270    -0.31100
O918        O  0.29055284  0.19757285  0.99752479    -0.22900
C919        C  0.26769067  0.19457893  0.97682510    -0.02900
C920        C  0.26976275  0.16656524  0.96050993    -0.17400
H921        H  0.30433877  0.11272930  0.94128586     0.20600
H922        H  0.34751292  0.18397150  0.02310744     0.19000
H923        H  0.40138526  0.14236963  0.01617597     0.18900
H924        H  0.25734023  0.16027986  0.93956048     0.14800
C925        C  0.54978032  0.14540346  0.87018184     0.30200
C926        C  0.56361234  0.17474597  0.86823848    -0.36100
C927        C  0.58125875  0.18028588  0.84137756     0.16200
C928        C  0.58562925  0.15810140  0.81847553     0.22000
C929        C  0.57275390  0.12838833  0.82103749    -0.34200
C930        C  0.55416464  0.12336753  0.84719573     0.16100
O931        O  0.53104808  0.13575752  0.89238802    -0.26200
C932        C  0.52301520  0.10733536  0.88315741     0.05900
C933        C  0.53655244  0.09855558  0.85505856    -0.31100
O934        O  0.59473445  0.17028791  0.79207885    -0.22900
C935        C  0.59483285  0.20084460  0.79725269    -0.02900
C936        C  0.58880323  0.20802795  0.82844374    -0.17400
H937        H  0.55874664  0.19286147  0.88514169     0.20600
H938        H  0.57436785  0.11151741  0.80233528     0.19000
H939        H  0.53506154  0.07641005  0.84308956     0.18900
H940        H  0.58312156  0.23047820  0.83843402     0.14800
C941        C  0.44601819  0.83835268  0.80103082     0.30200
C942        C  0.45601410  0.86920308  0.80305820    -0.36100
C943        C  0.45768619  0.88159027  0.83301078     0.16200
C944        C  0.44867165  0.86516051  0.85903665     0.22000
C945        C  0.43685827  0.83494811  0.85685846    -0.34200
C946        C  0.43666827  0.82196472  0.82698576     0.16100
O947        O  0.45140144  0.82017071  0.77711587    -0.26200
C948        C  0.44607466  0.79164461  0.78762732     0.05900
C949        C  0.43587474  0.79144199  0.81843975    -0.31100
O950        O  0.45656397  0.87921640  0.88492055    -0.22900
C951        C  0.47084799  0.90481314  0.87533789    -0.02900
C952        C  0.47195577  0.90783005  0.84327701    -0.17400
H953        H  0.46558190  0.88124370  0.78316432     0.20600
H954        H  0.43183369  0.82128388  0.87736541     0.19000
H955        H  0.43281087  0.77173269  0.83371444     0.18900
H956        H  0.48302916  0.92580505  0.82966353     0.14800
C957        C  0.45212741  0.87872376  0.11740826     0.30200
C958        C  0.44295656  0.87468189  0.14833279    -0.36100
C959        C  0.43738593  0.84403413  0.15741897     0.16200
C960        C  0.44065575  0.81906091  0.13745363     0.22000
C961        C  0.44917900  0.82315181  0.10621025    -0.34200
C962        C  0.45487522  0.85387893  0.09712840     0.16100
O963        O  0.46034672  0.90519521  0.10476129    -0.26200
C964        C  0.46845567  0.89735056  0.07597922     0.05900
C965        C  0.46537178  0.86570964  0.06971524    -0.31100
O966        O  0.43962139  0.79231182  0.15212996    -0.22900
C967        C  0.43583333  0.80008461  0.18194917    -0.02900
C968        C  0.43335049  0.83217427  0.18633358    -0.17400
H969        H  0.44189641  0.89393171  0.16460874     0.20600
H970        H  0.45294276  0.80362942  0.09065214     0.19000
H971        H  0.47050328  0.85329157  0.04834050     0.18900
H972        H  0.43279333  0.84534124  0.20779976     0.14800
C973        C  0.48320934  0.14217194  0.11210940     0.30200
C974        C  0.47638882  0.17289532  0.12086651    -0.36100
C975        C  0.47127549  0.17781257  0.15275454     0.16200
C976        C  0.47253593  0.15412490  0.17432170     0.22000
C977        C  0.47878551  0.12346664  0.16549801    -0.34200
C978        C  0.48442002  0.11868061  0.13389690     0.16100
O979        O  0.48894509  0.13200564  0.08369707    -0.26200
C980        C  0.49397155  0.10171246  0.08767665     0.05900
C981        C  0.49181439  0.09227919  0.11844611    -0.31100
O982        O  0.47257145  0.16438637  0.20307811    -0.22900
C983        C  0.47170297  0.19514116  0.20026870    -0.02900
C984        C  0.46983887  0.20474574  0.16926935    -0.17400
H985        H  0.47642289  0.19178170  0.10426223     0.20600
H986        H  0.48089535  0.10492343  0.18235790     0.19000
H987        H  0.49390091  0.06902426  0.12786192     0.18900
H988        H  0.47176679  0.22792382  0.15977822     0.14800
C989        C  0.32037470  0.03716958  0.15607263     0.30200
C990        C  0.35083433  0.04477487  0.14747971    -0.36100
C991        C  0.36141494  0.03238946  0.11923300     0.16200
C992        C  0.34291723  0.01465722  0.10001918     0.22000
C993        C  0.31214339  0.00738679  0.10841217    -0.34200
C994        C  0.30179209  0.01903148  0.13731125     0.16100
O995        O  0.30847164  0.04136999  0.18395431    -0.26200
C996        C  0.28177634  0.02588341  0.18354491     0.05900
C997        C  0.27622076  0.01168394  0.15487982    -0.31100
O998        O  0.35825725  0.00408197  0.07548082    -0.22900
C999        C  0.38705510  0.01459764  0.07955452    -0.02900
C1000       C  0.39033312  0.03242865  0.10632292    -0.17400
H1001       H  0.36603879  0.05748073  0.16293611     0.20600
H1002       H  0.29801872  0.99205560  0.09437775     0.19000
H1003       H  0.25847157  0.99480764  0.14937742     0.18900
H1004       H  0.41103893  0.04366745  0.11500713     0.14800
C1005       C  0.63333641  0.01325302  0.84667446     0.30200
C1006       C  0.64699134  0.02656735  0.82024267    -0.36100
C1007       C  0.67812091  0.01842082  0.81441362     0.16200
C1008       C  0.69461506  0.99814431  0.83299368     0.22000
C1009       C  0.68118514  0.98533315  0.85984261    -0.34200
C1010       C  0.65014734  0.99370316  0.86578173     0.16100
O1011       O  0.60436471  0.01730556  0.85623293    -0.26200
C1012       C  0.60268939  0.00023570  0.88192872     0.05900
C1013       C  0.63050071  0.98510552  0.88897324    -0.31100
O1014       O  0.72132504  0.98958860  0.82029969    -0.22900
C1015       C  0.72250046  0.00518888  0.79357153    -0.02900
C1016       C  0.69620709  0.02366374  0.78897880    -0.17400
H1017       H  0.63393183  0.04142963  0.80470204     0.20600
H1018       H  0.69359318  0.96889787  0.87431759     0.19000
H1019       H  0.63557884  0.97033745  0.90870890     0.18900
H1020       H  0.68924720  0.03521274  0.76773861     0.14800
C1021       C  0.30311741  0.99712069  0.81906520     0.30200
C1022       C  0.31407893  0.98862743  0.84850253    -0.36100
C1023       C  0.34339607  0.99995188  0.85671464     0.16200
C1024       C  0.36121572  0.01812707  0.83728116     0.22000
C1025       C  0.34996358  0.02711955  0.80788120    -0.34200
C1026       C  0.32025329  0.01607913  0.79977840     0.16100
O1027       O  0.27872657  0.98506604  0.80508981    -0.26200
C1028       C  0.27949534  0.99682805  0.77651397     0.05900
C1029       C  0.30480219  0.01655547  0.77206841    -0.31100
O1030       O  0.38899063  0.02416083  0.84913669    -0.22900
C1031       C  0.38855090  0.00989791  0.87665647    -0.02900
C1032       C  0.36070778  0.99466362  0.88248257    -0.17400
H1033       H  0.30129521  0.97293560  0.86338536     0.20600
H1034       H  0.36389378  0.04063213  0.79192451     0.19000
H1035       H  0.31325624  0.02577040  0.75023371     0.18900
H1036       H  0.35446716  0.98090358  0.90259203     0.14800
C1037       C  0.52321130  0.11930638  0.36713753     0.30200
C1038       C  0.53480948  0.12680156  0.33759411    -0.36100
C1039       C  0.53154403  0.15795114  0.32838912     0.16200
C1040       C  0.51762932  0.18037328  0.34683940     0.22000
C1041       C  0.50704125  0.17307199  0.37701722    -0.34200
C1042       C  0.51033634  0.14177780  0.38627400     0.16100
O1043       O  0.52191828  0.09114686  0.37924291    -0.26200
C1044       C  0.50831859  0.09542825  0.40676878     0.05900
C1045       C  0.50080676  0.12656759  0.41253673    -0.31100
O1046       O  0.51181622  0.20640122  0.33134135    -0.22900
C1047       C  0.52246680  0.20069507  0.30268485    -0.02900
C1048       C  0.53551982  0.17103403  0.29991470    -0.17400
H1049       H  0.54418027  0.10916249  0.32212263     0.20600
H1050       H  0.49531382  0.19012465  0.39150141     0.19000
H1051       H  0.48950235  0.13641064  0.43285493     0.18900
H1052       H  0.54283885  0.15931016  0.27877511     0.14800
C1053       C  0.50697884  0.86322586  0.34908443     0.30200
C1054       C  0.51054507  0.85743553  0.31723545    -0.36100
C1055       C  0.50317982  0.82733769  0.30715425     0.16200
C1056       C  0.49293150  0.80422358  0.32686498     0.22000
C1057       C  0.49041474  0.80970729  0.35903468    -0.34200
C1058       C  0.49770640  0.83998106  0.36913042     0.16100
O1059       O  0.50983568  0.89052525  0.36296277    -0.26200
C1060       C  0.50254941  0.88470014  0.39241580     0.05900
C1061       C  0.49501766  0.85360180  0.39761687    -0.31100
O1062       O  0.48275847  0.77946027  0.31158812    -0.22900
C1063       C  0.48693282  0.78688514  0.28180150    -0.02900
C1064       C  0.49993725  0.81618862  0.27788925    -0.17400
H1065       H  0.51688963  0.87565110  0.30112727     0.20600
H1066       H  0.48158556  0.79225180  0.37480537     0.19000
H1067       H  0.48760291  0.84285952  0.41912494     0.18900
H1068       H  0.50336085  0.82874620  0.25635803     0.14800
C1069       C  0.51778773  0.12921951  0.62809863     0.30200
C1070       C  0.52076665  0.16167677  0.63198326    -0.36100
C1071       C  0.52385925  0.17242718  0.66278568     0.16200
C1072       C  0.52422679  0.15239732  0.68777576     0.22000
C1073       C  0.52138643  0.12004950  0.68385873    -0.34200
C1074       C  0.51815635  0.10935308  0.65321084     0.16100
O1075       O  0.51489086  0.11413239  0.60149700    -0.26200
C1076       C  0.51335499  0.08419121  0.60961424     0.05900
C1077       C  0.51541221  0.07982285  0.64157186    -0.31100
O1078       O  0.52996905  0.16678809  0.71418867    -0.22900
C1079       C  0.53309163  0.19665153  0.70647136    -0.02900
C1080       C  0.52939994  0.20160500  0.67464699    -0.17400
H1081       H  0.52115062  0.17736272  0.61233550     0.20600
H1082       H  0.52233559  0.10423497  0.70338080     0.19000
H1083       H  0.51500004  0.05814826  0.65430864     0.18900
H1084       H  0.53312008  0.22291995  0.66186247     0.14800
C1085       C  0.51799892  0.84281923  0.63335992     0.30200
C1086       C  0.53066930  0.83164486  0.66125161    -0.36100
C1087       C  0.52104305  0.80193907  0.67068621     0.16200
C1088       C  0.49988390  0.78455731  0.65415645     0.22000
C1089       C  0.48787808  0.79535796  0.62566778    -0.34200
C1090       C  0.49784558  0.82496846  0.61601418     0.16100
O1091       O  0.52235699  0.87076013  0.62143260    -0.26200
C1092       C  0.50512658  0.87080217  0.59579317     0.05900
C1093       C  0.48949675  0.84281705  0.59110139    -0.31100
O1094       O  0.48967793  0.76038734  0.67018670    -0.22900
C1095       C  0.50513630  0.76161169  0.69705584    -0.02900
C1096       C  0.52517189  0.78700624  0.69828628    -0.17400
H1097       H  0.54583998  0.84579594  0.67542387     0.20600
H1098       H  0.47062743  0.78238409  0.61282843     0.19000
H1099       H  0.47373782  0.83684215  0.57244896     0.18900
H1100       H  0.53698680  0.79604143  0.71858093     0.14800
C1101       C  0.38140549  0.98066777  0.35511550     0.30200
C1102       C  0.37792509  0.98139097  0.32283535    -0.36100
C1103       C  0.34754663  0.97861656  0.31198702     0.16200
C1104       C  0.32238554  0.97476657  0.33150761     0.22000
C1105       C  0.32598391  0.97315702  0.36387395    -0.34200
C1106       C  0.35635726  0.97672717  0.37481365     0.16100
O1107       O  0.40742910  0.98526250  0.37014354    -0.26200
C1108       C  0.39905003  0.98446121  0.39986719     0.05900
C1109       C  0.36752696  0.97915898  0.40433176    -0.31100
O1110       O  0.29582135  0.97726448  0.31672571    -0.22900
C1111       C  0.30398773  0.98295135  0.28739900    -0.02900
C1112       C  0.33606158  0.98356281  0.28310440    -0.17400
H1113       H  0.39731363  0.98573868  0.30739049     0.20600
H1114       H  0.30629304  0.97135855  0.37945995     0.19000
H1115       H  0.35481299  0.97745181  0.42601375     0.18900
H1116       H  0.34926785  0.98981804  0.26264934     0.14800
C1117       C  0.69213172  0.93761379  0.65574425     0.30200
C1118       C  0.68555119  0.94173315  0.62416492    -0.36100
C1119       C  0.65409116  0.94417167  0.61660444     0.16200
C1120       C  0.63065330  0.94187506  0.63847137     0.22000
C1121       C  0.63719445  0.93610329  0.66976359    -0.34200
C1122       C  0.66870174  0.93437889  0.67745137     0.16100
O1123       O  0.71919303  0.94296238  0.66868764    -0.26200
C1124       C  0.71320791  0.94336761  0.69908065     0.05900
C1125       C  0.68216493  0.93701627  0.70577439    -0.31100
O1126       O  0.60331514  0.94955869  0.62720788    -0.22900
C1127       C  0.60944565  0.95701761  0.59787537    -0.02900
C1128       C  0.64051880  0.95360524  0.58980179    -0.17400
H1129       H  0.70366092  0.94622874  0.60727199     0.20600
H1130       H  0.61914332  0.93623208  0.68734764     0.19000
H1131       H  0.66994129  0.93892130  0.72769342     0.18900
H1132       H  0.65168197  0.95900511  0.56789048     0.14800
C1133       C  0.38645652  0.93145481  0.64207998     0.30200
C1134       C  0.37961529  0.92457681  0.67313360    -0.36100
C1135       C  0.34894322  0.91562723  0.67925819     0.16200
C1136       C  0.32701075  0.91230676  0.65607266     0.22000
C1137       C  0.33447771  0.91721435  0.62483912    -0.34200
C1138       C  0.36448196  0.92781516  0.61904937     0.16100
O1139       O  0.41168796  0.94543561  0.63198329    -0.26200
C1140       C  0.40540466  0.95116685  0.60230286     0.05900
C1141       C  0.37646112  0.94058330  0.59296134    -0.31100
O1142       O  0.29854291  0.91368470  0.66685905    -0.22900
C1143       C  0.30177181  0.91898081  0.69713038    -0.02900
C1144       C  0.33288042  0.91860081  0.70634397    -0.17400
H1145       H  0.39580680  0.92980516  0.69163191     0.20600
H1146       H  0.31684213  0.91724796  0.60692337     0.19000
H1147       H  0.36555674  0.94266095  0.57037811     0.18900
H1148       H  0.34270447  0.92615370  0.72820360     0.14800
C1149       C  0.66096670  0.98830402  0.16682396     0.30200
C1150       C  0.62952114  0.98317907  0.16026977    -0.36100
C1151       C  0.62085852  0.98509394  0.12898221     0.16200
C1152       C  0.64186965  0.99081093  0.10545472     0.22000
C1153       C  0.67372590  0.99516571  0.11197862    -0.34200
C1154       C  0.68234073  0.99405970  0.14360412     0.16100
O1155       O  0.67230689  0.99305159  0.19473946    -0.26200
C1156       C  0.70146026  0.00200225  0.18993260     0.05900
C1157       C  0.70928526  0.00271227  0.15841397    -0.31100
O1158       O  0.62803990  0.99431288  0.07818321    -0.22900
C1159       C  0.59778691  0.99102617  0.08446177    -0.02900
C1160       C  0.59209788  0.98514077  0.11574093    -0.17400
H1161       H  0.61253055  0.98028974  0.17862833     0.20600
H1162       H  0.69019280  0.00113931  0.09392314     0.19000
H1163       H  0.73021480  0.01186151  0.14795685     0.18900
H1164       H  0.56989302  0.98238273  0.12724337     0.14800
C1165       C  0.66767537  0.05552276  0.33249762     0.30200
C1166       C  0.66524560  0.04899583  0.36432381    -0.36100
C1167       C  0.63663193  0.03739064  0.37425454     0.16200
C1168       C  0.61166806  0.03384927  0.35450264     0.22000
C1169       C  0.61354921  0.04196911  0.32305949    -0.34200
C1170       C  0.64258132  0.05236277  0.31284352     0.16100
O1171       O  0.69401156  0.05816836  0.31724039    -0.26200
C1172       C  0.68602911  0.05642195  0.28737282     0.05900
C1173       C  0.65398758  0.05371393  0.28340074    -0.31100
O1174       O  0.58840204  0.01929367  0.36776077    -0.22900
C1175       C  0.59877630  0.01302180  0.39618409    -0.02900
C1176       C  0.62848933  0.02407080  0.40172403    -0.17400
H1177       H  0.68525972  0.04949779  0.37950151     0.20600
H1178       H  0.59471708  0.03739615  0.30706668     0.19000
H1179       H  0.64127276  0.04817508  0.26245890     0.18900
H1180       H  0.64218831  0.02214211  0.42271636     0.14800
C1181       C  0.37663570  0.83721103  0.49146793     0.30200
C1182       C  0.36940475  0.80561535  0.48606162    -0.36100
C1183       C  0.33764565  0.79767424  0.48744485     0.16200
C1184       C  0.31483457  0.81948890  0.49368794     0.22000
C1185       C  0.32205436  0.85076921  0.49942946    -0.34200
C1186       C  0.35354293  0.85864703  0.49789460     0.16100
O1187       O  0.40449765  0.85018606  0.49030858    -0.26200
C1188       C  0.39900713  0.88031312  0.49602645     0.05900
C1189       C  0.36766126  0.88677557  0.50081964    -0.31100
O1190       O  0.28664031  0.80828895  0.49037505    -0.22900
C1191       C  0.29095019  0.77867217  0.48216090    -0.02900
C1192       C  0.32235054  0.77057305  0.48028061    -0.17400
H1193       H  0.38715636  0.78865395  0.48019243     0.20600
H1194       H  0.30415272  0.86808040  0.50356994     0.19000
H1195       H  0.35681887  0.90905953  0.50566878     0.18900
H1196       H  0.33233671  0.74894728  0.47190906     0.14800
C1197       C  0.68167491  0.80873265  0.51980975     0.30200
C1198       C  0.67598745  0.84055798  0.52504083    -0.36100
C1199       C  0.64750413  0.85214204  0.51412956     0.16200
C1200       C  0.62584360  0.83352931  0.49968615     0.22000
C1201       C  0.63140588  0.80165379  0.49480611    -0.34200
C1202       C  0.66001255  0.79010950  0.50539383     0.16100
O1203       O  0.70886343  0.79483563  0.52227376    -0.26200
C1204       C  0.70477077  0.76689720  0.50938686     0.05900
C1205       C  0.67453674  0.76250993  0.49908128    -0.31100
O1206       O  0.60094772  0.84922667  0.49092667    -0.22900
C1207       C  0.60683319  0.87842502  0.49946913    -0.02900
C1208       C  0.63556312  0.88163243  0.51396069    -0.17400
H1209       H  0.69336871  0.85562185  0.53512723     0.20600
H1210       H  0.61517701  0.78717237  0.48224929     0.19000
H1211       H  0.66618806  0.74411033  0.48407046     0.18900
H1212       H  0.64571676  0.90246805  0.52373976     0.14800
C1213       C  0.64719685  0.11428891  0.49760334     0.30200
C1214       C  0.67856691  0.12188791  0.49302100    -0.36100
C1215       C  0.68656243  0.15323648  0.49768912     0.16200
C1216       C  0.66530073  0.17570405  0.50659104     0.22000
C1217       C  0.63374445  0.16821214  0.51056358    -0.34200
C1218       C  0.62571406  0.13681782  0.50578808     0.16100
O1219       O  0.63504175  0.08608265  0.49616766    -0.26200
C1220       C  0.60523652  0.09047555  0.50342742     0.05900
C1221       C  0.59815511  0.12167624  0.50950940    -0.31100
O1222       O  0.67869810  0.20226649  0.51453929    -0.22900
C1223       C  0.70892875  0.19698594  0.51010450    -0.02900
C1224       C  0.71495432  0.16687208  0.49937183    -0.17400
H1225       H  0.69583331  0.10429860  0.48754525     0.20600
H1226       H  0.61690997  0.18532038  0.51841354     0.19000
H1227       H  0.57599031  0.13165971  0.51624918     0.18900
H1228       H  0.73735077  0.15545014  0.49729160     0.14800
C1229       C  0.36071314  0.11301923  0.52886736     0.30200
C1230       C  0.32971707  0.12046632  0.53551384    -0.36100
C1231       C  0.32140168  0.15184595  0.53231506     0.16200
C1232       C  0.34203951  0.17453358  0.52305815     0.22000
C1233       C  0.37338936  0.16725666  0.51747429    -0.34200
C1234       C  0.38170422  0.13578330  0.52069181     0.16100
O1235       O  0.37276044  0.08473034  0.52766586    -0.26200
C1236       C  0.40198581  0.08944435  0.51891763     0.05900
C1237       C  0.40888654  0.12076973  0.51446491    -0.31100
O1238       O  0.32800838  0.20104809  0.51613699    -0.22900
C1239       C  0.29812488  0.19525323  0.52142083    -0.02900
C1240       C  0.29283960  0.16518132  0.53195675    -0.17400
H1241       H  0.31280204  0.10273908  0.54095844     0.20600
H1242       H  0.38967247  0.18449580  0.50922832     0.19000
H1243       H  0.43053485  0.13086744  0.50668589     0.18900
H1244       H  0.27071118  0.15370244  0.53498863     0.14800
C1245       C  0.88163274  0.00391601  0.63915885     0.30200
C1246       C  0.87756014  0.00100056  0.67157915    -0.36100
C1247       C  0.84791819  0.00874922  0.68330425     0.16200
C1248       C  0.82427464  0.01917286  0.66434640     0.22000
C1249       C  0.82845486  0.02238486  0.63213872    -0.34200
C1250       C  0.85768855  0.01395864  0.62040266     0.16100
O1251       O  0.90672020  0.99630081  0.62294930    -0.26200
C1252       C  0.89849672  0.00106906  0.59340285     0.05900
C1253       C  0.86819136  0.01203006  0.59050957    -0.31100
O1254       O  0.79729849  0.02014767  0.67873230    -0.22900
C1255       C  0.80323625  0.01024062  0.70743307    -0.02900
C1256       C  0.83458236  0.00312791  0.71173192    -0.17400
H1257       H  0.89566155  0.99167803  0.68634110     0.20600
H1258       H  0.80950837  0.02898873  0.61698502     0.19000
H1259       H  0.85582854  0.01804514  0.56945189     0.18900
H1260       H  0.84497458  0.99102734  0.73118024     0.14800
C1261       C  0.18756213  0.98835687  0.63973355     0.30200
C1262       C  0.18084550  0.98830863  0.60777684    -0.36100
C1263       C  0.14974566  0.99368915  0.59977036     0.16200
C1264       C  0.12680390  0.99870568  0.62171938     0.22000
C1265       C  0.13368604  0.99946673  0.65369302    -0.34200
C1266       C  0.16488241  0.99420250  0.66175020     0.16100
O1267       O  0.21444176  0.98102741  0.65232741    -0.26200
C1268       C  0.20928767  0.98265411  0.68288425     0.05900
C1269       C  0.17883601  0.99100666  0.69017509    -0.31100
O1270       O  0.09895804  0.00106728  0.60915307    -0.22900
C1271       C  0.10416116  0.99775772  0.57874661    -0.02900
C1272       C  0.13539020  0.99326391  0.57154132    -0.17400
H1273       H  0.19844783  0.98327437  0.59042285     0.20600
H1274       H  0.11578354  0.00287836  0.67110762     0.19000
H1275       H  0.16809307  0.99233143  0.71293109     0.18900
H1276       H  0.14580797  0.98922926  0.54892538     0.14800
C1277       C  0.13051018  0.02017311  0.34667755     0.30200
C1278       C  0.15813491  0.03524495  0.33860806    -0.36100
C1279       C  0.16950549  0.02943508  0.30855650     0.16200
C1280       C  0.15526851  0.00946380  0.28792810     0.22000
C1281       C  0.12711846  0.99479607  0.29582285    -0.34200
C1282       C  0.11531111  0.00114708  0.32581880     0.16100
O1283       O  0.11643426  0.02183325  0.37390526    -0.26200
C1284       C  0.09144517  0.00411203  0.37051781     0.05900
C1285       C  0.08942738  0.99064053  0.34101319    -0.31100
O1286       O  0.17280090  0.00353322  0.26317691    -0.22900
C1287       C  0.19827547  0.02048437  0.26776140    -0.02900
C1288       C  0.19704702  0.03736052  0.29548081    -0.17400
H1289       H  0.17046164  0.04977997  0.35501774     0.20600
H1290       H  0.11585242  0.97866102  0.28016832     0.19000
H1291       H  0.07175073  0.97510358  0.33226437     0.18900
H1292       H  0.21575365  0.05002227  0.30647849     0.14800
C1293       C  0.80607087  0.99469854  0.31586715     0.30200
C1294       C  0.81193764  0.99273065  0.34783695    -0.36100
C1295       C  0.84280388  0.99651216  0.35695794     0.16200
C1296       C  0.86657589  0.00110750  0.33596139     0.22000
C1297       C  0.86066724  0.00328991  0.30372049    -0.34200
C1298       C  0.82941449  0.00018794  0.29457698     0.16100
O1299       O  0.77835025  0.99635877  0.30347903    -0.26200
C1300       C  0.78333677  0.00350297  0.27379795     0.05900
C1301       C  0.81488671  0.00572517  0.26664458    -0.31100
O1302       O  0.89377769  0.00369728  0.34990655    -0.22900
C1303       C  0.88716458  0.00103021  0.38019873    -0.02900
C1304       C  0.85569918  0.99686808  0.38588309    -0.17400
H1305       H  0.79338131  0.98989219  0.36461235     0.20600
H1306       H  0.87893712  0.00820011  0.28713258     0.19000
H1307       H  0.82528433  0.01415787  0.24534899     0.18900
H1308       H  0.84412484  0.99379443  0.40803434     0.14800
C1309       C  0.17024226  0.82805736  0.42501285     0.30200
C1310       C  0.16585576  0.86034325  0.42769140    -0.36100
C1311       C  0.13671394  0.87018089  0.43866702     0.16200
C1312       C  0.11312990  0.84967654  0.44545615     0.22000
C1313       C  0.11716664  0.81745908  0.44184004    -0.34200
C1314       C  0.14659457  0.80757157  0.43166967     0.16100
O1315       O  0.19740838  0.81405414  0.42260643    -0.26200
C1316       C  0.19145662  0.78420367  0.42815970     0.05900
C1317       C  0.15982163  0.77878371  0.43289502    -0.31100
O1318       O  0.08826697  0.86374987  0.45674826    -0.22900
C1319       C  0.09600959  0.89369128  0.45741730    -0.02900
C1320       C  0.12599321  0.89908255  0.44654358    -0.17400
H1321       H  0.18469826  0.87650529  0.42401793     0.20600
H1322       H  0.09933830  0.80114919  0.44865078     0.19000
H1323       H  0.14877794  0.75791394  0.44142081     0.18900
H1324       H  0.13798245  0.92105965  0.44447278     0.14800
C1325       C  0.85214412  0.87111577  0.45808974     0.30200
C1326       C  0.82081082  0.86450241  0.45281002    -0.36100
C1327       C  0.81404977  0.83365333  0.44479445     0.16200
C1328       C  0.83657218  0.81087914  0.44187041     0.22000
C1329       C  0.86809468  0.81781077  0.44582170    -0.34200
C1330       C  0.87475871  0.84850212  0.45452865     0.16100
O1331       O  0.86338336  0.89782482  0.46804772    -0.26200
C1332       C  0.89360032  0.89217608  0.47109188     0.05900
C1333       C  0.90197322  0.86184822  0.46300635    -0.31100
O1334       O  0.82478117  0.78267334  0.44174282    -0.22900
C1335       C  0.79430117  0.78721915  0.44487916    -0.02900
C1336       C  0.78639557  0.81878954  0.44559364    -0.17400
H1337       H  0.80273527  0.88162158  0.45699734     0.20600
H1338       H  0.88587972  0.79992913  0.44494254     0.19000
H1339       H  0.92487692  0.85131874  0.46295331     0.18900
H1340       H  0.76437514  0.82956234  0.45135553     0.14800
C1341       C  0.85605090  0.11059341  0.54433831     0.30200
C1342       C  0.82673321  0.11361732  0.55821353    -0.36100
C1343       C  0.82006343  0.14261651  0.57175329     0.16200
C1344       C  0.84112957  0.16672433  0.57209917     0.22000
C1345       C  0.87121700  0.16288942  0.56018628    -0.34200
C1346       C  0.87744013  0.13432266  0.54575954     0.16100
O1347       O  0.86565042  0.08710775  0.52696939    -0.26200
C1348       C  0.89348254  0.09605881  0.51697835     0.05900
C1349       C  0.90208506  0.12514234  0.52816927    -0.31100
O1350       O  0.82758073  0.19390175  0.57607092    -0.22900
C1351       C  0.79737176  0.18758069  0.57749116    -0.02900
C1352       C  0.79175458  0.15557634  0.57714989    -0.17400
H1353       H  0.80916397  0.09587867  0.55556494     0.20600
H1354       H  0.88723646  0.18215925  0.55864071     0.19000
H1355       H  0.92349990  0.13759576  0.52410451     0.18900
H1356       H  0.76991891  0.14369419  0.57402115     0.14800
C1357       C  0.11890481  0.14018645  0.45131339     0.30200
C1358       C  0.12653987  0.17173697  0.44941414    -0.36100
C1359       C  0.15830537  0.17835249  0.44731244     0.16200
C1360       C  0.18089182  0.15544002  0.44625254     0.22000
C1361       C  0.17313847  0.12391514  0.44628097    -0.34200
C1362       C  0.14155493  0.11737004  0.44944584     0.16100
O1363       O  0.09150443  0.12896428  0.45900011    -0.26200
C1364       C  0.09689866  0.09868585  0.46228173     0.05900
C1365       C  0.12749923  0.09014334  0.45621893    -0.31100
O1366       O  0.20874342  0.16626586  0.45207598    -0.22900
C1367       C  0.20420959  0.19647479  0.45714276    -0.02900
C1368       C  0.17320939  0.20539027  0.45352380    -0.17400
H1369       H  0.10928923  0.18984647  0.45284451     0.20600
H1370       H  0.19071103  0.10585218  0.44754129     0.19000
H1371       H  0.13816433  0.06735314  0.45810076     0.18900
H1372       H  0.16219695  0.22730265  0.45940834     0.14800
C1373       C  0.96069018  0.67326335  0.16108339     0.30200
C1374       C  0.95118165  0.64353282  0.15191288    -0.36100
C1375       C  0.96016269  0.63408884  0.12205310     0.16200
C1376       C  0.97680002  0.65288096  0.10215592     0.22000
C1377       C  0.98580973  0.68306751  0.11115884    -0.34200
C1378       C  0.97727672  0.69237141  0.14141215     0.16100
O1379       O  0.95945536  0.68401085  0.18965068    -0.26200
C1380       C  0.97515905  0.71049611  0.18856794     0.05900
C1381       C  0.98661117  0.71720749  0.15904833    -0.31100
O1382       O  0.98504993  0.63813836  0.07635766    -0.22900
C1383       C  0.97385365  0.60948700  0.08005695    -0.02900
C1384       C  0.95799415  0.60576983  0.10799905    -0.17400
H1385       H  0.93958340  0.62794951  0.16785389     0.20600
H1386       H  0.00020141  0.69743669  0.09641440     0.19000
H1387       H  0.00262064  0.73542443  0.15256378     0.18900
H1388       H  0.94740070  0.58489081  0.11711552     0.14800
C1389       C  0.98219230  0.87419484  0.33285515     0.30200
C1390       C  0.98742585  0.86625712  0.30154958    -0.36100
C1391       C  0.97601237  0.83724572  0.29199497     0.16200
C1392       C  0.96015385  0.81775137  0.31190844     0.22000
C1393       C  0.95462593  0.82583021  0.34299317    -0.34200
C1394       C  0.96671211  0.85434646  0.35266509     0.16100
O1395       O  0.99204518  0.89945437  0.34717366    -0.26200
C1396       C  0.98317050  0.89533964  0.37656102     0.05900
C1397       C  0.96753084  0.86757737  0.38138024    -0.31100
O1398       O  0.95676600  0.78972682  0.30034532    -0.22900
C1399       C  0.97064266  0.79096588  0.27273700    -0.02900
C1400       C  0.98249787  0.82018268  0.26591781    -0.17400
H1401       H  0.00102688  0.88082594  0.28625746     0.20600
H1402       H  0.94368478  0.80993319  0.35909195     0.19000
H1403       H  0.95771013  0.85875824  0.40280874     0.18900
H1404       H  0.99800378  0.82633281  0.24707639     0.14800
C1405       C  0.00745669  0.34438197  0.86907117     0.30200
C1406       C  0.00283962  0.31212454  0.86580119    -0.36100
C1407       C  0.00825170  0.29949742  0.83603781     0.16200
C1408       C  0.01805692  0.31741651  0.81137761     0.22000
C1409       C  0.02304393  0.34958042  0.81475779    -0.34200
C1410       C  0.01699012  0.36229098  0.84430323     0.16100
O1411       O  0.00140286  0.36126615  0.89410936    -0.26200
C1412       C  0.00685682  0.39048683  0.88530617     0.05900
C1413       C  0.01657628  0.39250961  0.85444634    -0.31100
O1414       O  0.01638414  0.30241937  0.78465403    -0.22900
C1415       C  0.00538943  0.27439591  0.79188653    -0.02900
C1416       C  0.00016103  0.27124488  0.82373748    -0.17400
H1417       H  0.99374091  0.29821356  0.88465365     0.20600
H1418       H  0.02903795  0.36406840  0.79510750     0.19000
H1419       H  0.02207004  0.41321642  0.84130969     0.18900
H1420       H  0.98758397  0.25286073  0.83533952     0.14800
C1421       C  0.00325413  0.14136435  0.61464334     0.30200
C1422       C  0.00546150  0.17286664  0.62339224    -0.36100
C1423       C  0.00344909  0.17930661  0.65549433     0.16200
C1424       C  0.99899979  0.15652871  0.67759200     0.22000
C1425       C  0.99708419  0.12504805  0.66885727    -0.34200
C1426       C  0.99948673  0.11854571  0.63681178     0.16100
O1427       O  0.00379290  0.12998702  0.58589448    -0.26200
C1428       C  0.00056285  0.09934116  0.58970832     0.05900
C1429       C  0.99777506  0.09109255  0.62095907    -0.31100
O1430       O  0.99407669  0.16812263  0.70582042    -0.22900
C1431       C  0.99597225  0.19878979  0.70189935    -0.02900
C1432       C  0.00196588  0.20689956  0.67104089    -0.17400
H1433       H  0.00783119  0.19118103  0.60633204     0.20600
H1434       H  0.99305335  0.10691773  0.68578581     0.19000
H1435       H  0.99455145  0.06810241  0.63061380     0.18900
H1436       H  0.00191484  0.23000237  0.66105031     0.14800
C1437       C  0.99543601  0.63446857  0.83959671     0.30200
C1438       C  0.98631003  0.64747060  0.81101000    -0.36100
C1439       C  0.99799482  0.67724327  0.80416599     0.16200
C1440       C  0.01796104  0.69289837  0.82367923     0.22000
C1441       C  0.02642289  0.68031991  0.85259945    -0.34200
C1442       C  0.01430641  0.65082720  0.85965474     0.16100
O1443       O  0.98803793  0.60653377  0.85039392    -0.26200
C1444       C  0.00210822  0.60517937  0.87797301     0.05900
C1445       C  0.01860845  0.63219668  0.88483823    -0.31100
O1446       O  0.03068102  0.71739279  0.81022450    -0.22900
C1447       C  0.01809073  0.71813701  0.78193542    -0.02900
C1448       C  0.99722250  0.69385292  0.77722763    -0.17400
H1449       H  0.97201191  0.63479122  0.79469273     0.20600
H1450       H  0.04252956  0.69203647  0.86791640     0.19000
H1451       H  0.03193160  0.63731350  0.90554817     0.18900
H1452       H  0.98710920  0.68656351  0.75536561     0.14800
C1453       C  0.01144128  0.87200738  0.62760441     0.30200
C1454       C  0.01575835  0.86648050  0.65960178    -0.36100
C1455       C  0.01967574  0.83519720  0.66834563     0.16200
C1456       C  0.01969906  0.81129697  0.64684810     0.22000
C1457       C  0.01540501  0.81677215  0.61501060    -0.34200
C1458       C  0.01119891  0.84786198  0.60638333     0.16100
O1459       O  0.00783315  0.89936727  0.61416136    -0.26200
C1460       C  0.00513534  0.89257522  0.58399487     0.05900
C1461       C  0.00706337  0.86084532  0.57782706    -0.31100
O1462       O  0.02553699  0.78413873  0.65949423    -0.22900
C1463       C  0.02903726  0.79029581  0.68966095    -0.02900
C1464       C  0.02550845  0.82178257  0.69668496    -0.17400
H1465       H  0.01636831  0.88526467  0.67641046     0.20600
H1466       H  0.01578675  0.79807337  0.59807717     0.19000
H1467       H  0.00604976  0.84912581  0.55552264     0.18900
H1468       H  0.02867507  0.83323596  0.71889785     0.14800
C1469       C  0.15234115  0.60790681  0.49761433     0.30200
C1470       C  0.18303348  0.61385036  0.48806806    -0.36100
C1471       C  0.19333453  0.64465504  0.49149555     0.16200
C1472       C  0.17474971  0.66772131  0.50412195     0.22000
C1473       C  0.14429131  0.66166548  0.51414176    -0.34200
C1474       C  0.13376176  0.63114323  0.50991896     0.16100
O1475       O  0.13723331  0.58152770  0.49396194    -0.26200
C1476       C  0.10848552  0.58801155  0.50361071     0.05900
C1477       C  0.10493176  0.61859305  0.51383969    -0.31100
O1478       O  0.18690900  0.69554551  0.50096531    -0.22900
C1479       C  0.21379398  0.69062268  0.48632178    -0.02900
C1480       C  0.21911185  0.65924269  0.47985565    -0.17400
H1481       H  0.19718319  0.59612652  0.47694532     0.20600
H1482       H  0.12913269  0.68002395  0.52258744     0.19000
H1483       H  0.08411350  0.62996277  0.52247198     0.18900
H1484       H  0.23720342  0.64919851  0.46539699     0.14800
C1485       C  0.81527995  0.32270887  0.51642487     0.30200
C1486       C  0.82425809  0.35331582  0.52345251    -0.36100
C1487       C  0.85495624  0.36125669  0.51578834     0.16200
C1488       C  0.87563236  0.34048963  0.50243119     0.22000
C1489       C  0.86657058  0.30997468  0.49512785    -0.34200
C1490       C  0.83571871  0.30215919  0.50239503     0.16100
O1491       O  0.78891183  0.30934903  0.52468654    -0.26200
C1492       C  0.79209403  0.27997878  0.51515254     0.05900
C1493       C  0.82082272  0.27431199  0.50112157    -0.31100
O1494       O  0.90341176  0.35271812  0.49787810    -0.22900
C1495       C  0.90036454  0.38185721  0.50811351    -0.02900
C1496       C  0.87072078  0.38837517  0.51960116    -0.17400
H1497       H  0.80866137  0.36956798  0.53488435     0.20600
H1498       H  0.88263502  0.29328014  0.48506554     0.19000
H1499       H  0.83060625  0.25204621  0.49430519     0.18900
H1500       H  0.86206457  0.41002047  0.52933429     0.14800
C1501       C  0.14035478  0.34631002  0.53024805     0.30200
C1502       C  0.15326308  0.31995771  0.54480827    -0.36100
C1503       C  0.18383337  0.31200143  0.53592640     0.16200
C1504       C  0.20024048  0.32844334  0.51385447     0.22000
C1505       C  0.18765076  0.35498541  0.49990417    -0.34200
C1506       C  0.15746237  0.36310530  0.50900034     0.16100
O1507       O  0.11185507  0.35766611  0.53393684    -0.26200
C1508       C  0.11117996  0.38215708  0.51490934     0.05900
C1509       C  0.13889963  0.38650274  0.49900674    -0.31100
O1510       O  0.22553989  0.31378313  0.50447577    -0.22900
C1511       C  0.22598773  0.28776337  0.52109211    -0.02900
C1512       C  0.20083231  0.28579573  0.54150509    -0.17400
H1513       H  0.14002718  0.30591000  0.56089775     0.20600
H1514       H  0.19991969  0.36751995  0.48190040     0.19000
H1515       H  0.14449006  0.40444517  0.48231192     0.18900
H1516       H  0.19327005  0.26546333  0.55420249     0.14800
C1517       C  0.87488163  0.62786551  0.51568379     0.30200
C1518       C  0.86757645  0.65933351  0.52006056    -0.36100
C1519       C  0.83641996  0.66765273  0.51560305     0.16200
C1520       C  0.81372990  0.64662178  0.50729228     0.22000
C1521       C  0.82088218  0.61486490  0.50378192    -0.34200
C1522       C  0.85219491  0.60653133  0.50820267     0.16100
O1523       O  0.90302832  0.61553895  0.51615320    -0.26200
C1524       C  0.89837433  0.58580913  0.50902682     0.05900
C1525       C  0.86716266  0.57886017  0.50406562    -0.31100
O1526       O  0.78728996  0.66043351  0.49962912    -0.22900
C1527       C  0.79325995  0.69057851  0.50346114    -0.02900
C1528       C  0.82328144  0.69624215  0.51371157    -0.17400
H1529       H  0.88526645  0.67646395  0.52493348     0.20600
H1530       H  0.80368404  0.59814990  0.49634978     0.19000
H1531       H  0.85711739  0.55679739  0.49737342     0.18900
H1532       H  0.83472691  0.71850052  0.51604947     0.14800
C1533       C  0.13311042  0.46173867  0.36044916     0.30200
C1534       C  0.13795599  0.45313905  0.32935802    -0.36100
C1535       C  0.16781347  0.45818477  0.31744837     0.16200
C1536       C  0.19148472  0.47095346  0.33483189     0.22000
C1537       C  0.18693983  0.47850882  0.36643018    -0.34200
C1538       C  0.15689040  0.47348301  0.37839791     0.16100
O1539       O  0.10610962  0.46201185  0.37499047    -0.26200
C1540       C  0.11243452  0.47380827  0.40286736     0.05900
C1541       C  0.14382001  0.48108919  0.40648348    -0.31100
O1542       O  0.21549833  0.47912283  0.31743867    -0.22900
C1543       C  0.20721323  0.47104756  0.28869782    -0.02900
C1544       C  0.17793440  0.45751867  0.28753787    -0.17400
H1545       H  0.11914037  0.44500919  0.31484081     0.20600
H1546       H  0.20487934  0.48958422  0.38007337     0.19000
H1547       H  0.15503135  0.49168545  0.42635713     0.18900
H1548       H  0.16436956  0.45217858  0.26703413     0.14800
C1549       C  0.87864992  0.48005260  0.35625535     0.30200
C1550       C  0.87255736  0.47969334  0.32420237    -0.36100
C1551       C  0.84151862  0.48450822  0.31536164     0.16200
C1552       C  0.81779599  0.48984063  0.33635920     0.22000
C1553       C  0.82385563  0.48989776  0.36862635    -0.34200
C1554       C  0.85502308  0.48463845  0.37756031     0.16100
O1555       O  0.90630785  0.47742861  0.36942884    -0.26200
C1556       C  0.90054816  0.48013748  0.39978804     0.05900
C1557       C  0.86893092  0.48440834  0.40615608    -0.31100
O1558       O  0.79096592  0.49637887  0.32244405    -0.22900
C1559       C  0.79773398  0.49493576  0.29210791    -0.02900
C1560       C  0.82879834  0.48729277  0.28665047    -0.17400
H1561       H  0.89091998  0.47659873  0.30720893     0.20600
H1562       H  0.80573865  0.49448086  0.38555547     0.19000
H1563       H  0.85794324  0.48795554  0.42857557     0.18900
H1564       H  0.84078194  0.48593996  0.26450595     0.14800
C1565       C  0.15774046  0.49189856  0.62320704     0.30200
C1566       C  0.18896445  0.50065273  0.62727970    -0.36100
C1567       C  0.20219747  0.49393090  0.65638580     0.16200
C1568       C  0.18575749  0.47948577  0.67975662     0.22000
C1569       C  0.15462555  0.47060114  0.67563334    -0.34200
C1570       C  0.14131875  0.47757846  0.64667176     0.16100
O1571       O  0.14057193  0.49684103  0.59826845    -0.26200
C1572       C  0.11260702  0.48586162  0.60586097     0.05900
C1573       C  0.11172166  0.47363063  0.63580773    -0.31100
O1574       O  0.20101415  0.47915465  0.70628553    -0.22900
C1575       C  0.22786280  0.49319590  0.70005157    -0.02900
C1576       C  0.22984297  0.50290033  0.66922580    -0.17400
H1577       H  0.20168307  0.51291574  0.60940334     0.20600
H1578       H  0.14126317  0.46028353  0.69426433     0.19000
H1579       H  0.09226214  0.46305947  0.64765988     0.18900
H1580       H  0.24720252  0.51785838  0.65896338     0.14800
C1581       C  0.85525055  0.48057443  0.62467237     0.30200
C1582       C  0.82492586  0.46933312  0.62885054    -0.36100
C1583       C  0.81243801  0.47197931  0.65894593     0.16200
C1584       C  0.82880013  0.48471148  0.68332241     0.22000
C1585       C  0.85934972  0.49572702  0.67923218    -0.34200
C1586       C  0.87185508  0.49310554  0.64903432     0.16100
O1587       O  0.87161368  0.47890438  0.59876419    -0.26200
C1588       C  0.89933089  0.49017477  0.60639598     0.05900
C1589       C  0.90087173  0.49952637  0.63748457    -0.31100
O1590       O  0.81395554  0.48189837  0.71007407    -0.22900
C1591       C  0.78741066  0.46761635  0.70292751    -0.02900
C1592       C  0.78546268  0.46064328  0.67131178    -0.17400
H1593       H  0.81231058  0.45833987  0.61008685     0.20600
H1594       H  0.87281752  0.50461865  0.69851032     0.19000
H1595       H  0.92061966  0.50884153  0.64988547     0.18900
H1596       H  0.76847243  0.44616549  0.65980017     0.14800
C1597       C  0.01963163  0.66838127  0.33651724     0.30200
C1598       C  0.01771904  0.66321858  0.36867215    -0.36100
C1599       C  0.01476902  0.63206772  0.37774559     0.16200
C1600       C  0.01433820  0.60774692  0.35667890     0.22000
C1601       C  0.01685281  0.61290168  0.32469777    -0.34200
C1602       C  0.01937958  0.64397902  0.31561509     0.16100
O1603       O  0.01790447  0.69559327  0.32265664    -0.26200
C1604       C  0.01645620  0.68858884  0.29246371     0.05900
C1605       C  0.01784009  0.65665945  0.28684230    -0.31100
O1606       O  0.01049891  0.58055467  0.37003751    -0.22900
C1607       C  0.00834344  0.58747012  0.40006888    -0.02900
C1608       C  0.01073420  0.61920107  0.40631233    -0.17400
H1609       H  0.01697102  0.68219584  0.38528430     0.20600
H1610       H  0.01554401  0.59407359  0.30797814     0.19000
H1611       H  0.01485179  0.64413613  0.26521561     0.18900
H1612       H  0.00991683  0.63096151  0.42861909     0.14800
C1613       C  0.95880783  0.36920467  0.64770946     0.30200
C1614       C  0.95151021  0.36499357  0.67912115    -0.36100
C1615       C  0.93942355  0.33590433  0.68704410     0.16200
C1616       C  0.93445238  0.31268919  0.66541990     0.22000
C1617       C  0.94051963  0.31738635  0.63371830    -0.34200
C1618       C  0.95333434  0.34621569  0.62594763     0.16100
O1619       O  0.97323697  0.39335444  0.63588146    -0.26200
C1620       C  0.97732172  0.38564347  0.60620622     0.05900
C1621       C  0.96526269  0.35662236  0.59860588    -0.31100
O1622       O  0.93099190  0.28531184  0.67846614    -0.22900
C1623       C  0.93435782  0.29064984  0.70882593    -0.02900
C1624       C  0.93813905  0.32225383  0.71541464    -0.17400
H1625       H  0.95745721  0.38217025  0.69656018     0.20600
H1626       H  0.93842614  0.29877898  0.61682829     0.19000
H1627       H  0.96531549  0.34495305  0.57624183     0.18900
H1628       H  0.94532496  0.33302928  0.73697395     0.14800
C1629       C  0.07609604  0.66673233  0.64963396     0.30200
C1630       C  0.06669448  0.65977134  0.61936262    -0.36100
C1631       C  0.05685355  0.62934681  0.61441659     0.16200
C1632       C  0.05746225  0.60681282  0.63723989     0.22000
C1633       C  0.06823844  0.61342111  0.66720494    -0.34200
C1634       C  0.07692309  0.64433127  0.67257317     0.16100
O1635       O  0.07800209  0.69498427  0.66089519    -0.26200
C1636       C  0.07954002  0.69113445  0.69152302     0.05900
C1637       C  0.08003385  0.65979160  0.70000877    -0.31100
O1638       O  0.04405476  0.58085492  0.62834185    -0.22900
C1639       C  0.03443786  0.58723639  0.59973378    -0.02900
C1640       C  0.04199736  0.61691604  0.58973943    -0.17400
H1641       H  0.06392127  0.67765344  0.60188352     0.20600
H1642       H  0.06692388  0.59651494  0.68576882     0.19000
H1643       H  0.07783269  0.64973111  0.72292578     0.18900
H1644       H  0.03683838  0.62786748  0.56767595     0.14800
C1645       C  0.97714061  0.35492679  0.11002019     0.30200
C1646       C  0.97844150  0.32266547  0.11588260    -0.36100
C1647       C  0.97451879  0.31349579  0.14707384     0.16200
C1648       C  0.96943192  0.33477739  0.17063960     0.22000
C1649       C  0.96797573  0.36689368  0.16478025    -0.34200
C1650       C  0.97224890  0.37602380  0.13378270     0.16100
O1651       O  0.98161112  0.36871493  0.08292661    -0.26200
C1652       C  0.97973243  0.39907219  0.08941091     0.05900
C1653       C  0.97401478  0.40494242  0.12079980    -0.31100
O1654       O  0.97035986  0.32194542  0.19836402    -0.22900
C1655       C  0.97597984  0.29188888  0.19294708    -0.02900
C1656       C  0.97857825  0.28517562  0.16127156    -0.17400
H1657       H  0.98343400  0.30600016  0.09759307     0.20600
H1658       H  0.96521331  0.38370855  0.18339753     0.19000
H1659       H  0.97173059  0.42724196  0.13238542     0.18900
H1660       H  0.98612733  0.26357661  0.15059062     0.14800
C1661       C  0.97272281  0.14150911  0.35441446     0.30200
C1662       C  0.96183412  0.17099798  0.34567658    -0.36100
C1663       C  0.96497303  0.17855662  0.31405750     0.16200
C1664       C  0.97907062  0.15908138  0.29266376     0.22000
C1665       C  0.98934488  0.12926209  0.30125607    -0.34200
C1666       C  0.98533375  0.12135122  0.33268020     0.16100
O1667       O  0.97229720  0.12969115  0.38276717    -0.26200
C1668       C  0.98434466  0.10137388  0.37895928     0.05900
C1669       C  0.99285106  0.09497670  0.34831062    -0.31100
O1670       O  0.98502246  0.17322245  0.26602428    -0.22900
C1671       C  0.97373353  0.20192446  0.26995618    -0.02900
C1672       C  0.96036831  0.20606912  0.29930628    -0.17400
H1673       H  0.95232343  0.18726432  0.36249923     0.20600
H1674       H  0.00077808  0.11377323  0.28489774     0.19000
H1675       H  0.00302932  0.07383398  0.33893890     0.18900
H1676       H  0.95346466  0.22786345  0.31005514     0.14800
C1677       C  0.04493385  0.30601495  0.33374973     0.30200
C1678       C  0.04056272  0.30853338  0.36601071    -0.36100
C1679       C  0.03860863  0.33886320  0.37785764     0.16200
C1680       C  0.04195252  0.36479580  0.35929553     0.22000
C1681       C  0.04789893  0.36224997  0.32739837    -0.34200
C1682       C  0.04870850  0.33201039  0.31539015     0.16100
O1683       O  0.03917795  0.28096771  0.31720331    -0.26200
C1684       C  0.03882252  0.29089178  0.28788468     0.05900
C1685       C  0.04559301  0.32247229  0.28543559    -0.31100
O1686       O  0.03508764  0.39072441  0.37403303    -0.22900
C1687       C  0.02714758  0.38143157  0.40238453    -0.02900
C1688       C  0.02919076  0.34938594  0.40633473    -0.17400
H1689       H  0.03553026  0.28842896  0.38023286     0.20600
H1690       H  0.04847991  0.38249610  0.31248875     0.19000
H1691       H  0.04385620  0.33744063  0.26534134     0.18900
H1692       H  0.02310777  0.33582548  0.42661564     0.14800
loop_ 
_geom_bond_atom_site_label_1 
_geom_bond_atom_site_label_2 
_geom_bond_distance 
_geom_bond_site_symmetry_2 
_ccdc_geom_bond_type 
C1            C2   1.416       .  A
C1            C6   1.403   1_655  A
C1         C1655   1.481       .  S
C2            C3   1.415       .  A
C2            H7   1.083       .  S
C3            C4   1.399   1_655  A
C3         C1671   1.476       .  S
C4            C5   1.392       .  A
C4            H8   1.085       .  S
C5            C6   1.398       .  A
C5         C1684   1.480       .  S
C6            H9   1.081       .  S
O10          C21   1.288       .  A
O10         Eu46   2.437       .  S
O11          C22   1.290       .  A
O11         Eu45   2.452   1_655  S
O12          C23   1.295       .  A
O12         Eu18   2.488       .  S
O13          C24   1.295       .  A
O13         Eu18   2.489   1_655  S
O14          C24   1.289       .  A
O14         Eu48   2.445       .  S
O15          C23   1.290       .  A
O15         Eu47   2.451       .  S
O16          C22   1.289       .  A
O16         Eu18   2.441   1_655  S
O17          C21   1.292       .  A
O17         Eu18   2.464       .  S
Eu18         O28   2.363   1_455  S
Eu18         O20   2.350       .  S
Eu18         O19   2.342   1_455  S
Eu18         O26   2.370       .  S
O19         Eu48   2.337       .  S
O19         Eu45   2.349   1_655  S
O20         Eu46   2.350       .  S
O20         Eu47   2.340       .  S
C21        C1687   1.462       .  S
C22        C1620   1.462       .  S
C23        C1508   1.474       .  S
C24        C1495   1.477       .  S
H25          O26   0.964       .  S
O26         Eu47   2.371       .  S
O26         Eu45   2.357       .  S
H27          O28   0.965       .  S
O28         Eu46   2.365   1_655  S
O28         Eu48   2.366       .  S
O29          C52   1.288       .  A
O29         Eu45   2.443       .  S
O30          C53   1.293       .  A
O30         Eu46   2.471       .  S
O31          C54   1.287       .  A
O31         Eu47   2.442       .  S
O32          C55   1.291       .  A
O32         Eu48   2.461       .  S
O33          C56   1.293       .  A
O33         Eu48   2.470       .  S
O34          C57   1.289       .  A
O34         Eu47   2.448       .  S
O35          C58   1.293       .  A
O35         Eu49   2.472       .  S
O36          C59   1.296       .  A
O36         Eu49   2.492   1_655  S
O37          C58   1.290       .  A
O37         Eu47   2.459       .  S
O38          C59   1.287       .  A
O38         Eu48   2.436       .  S
O39          C54   1.300       .  A
O39         Eu45   2.515       .  S
O40          C57   1.298       .  A
O40         Eu46   2.500       .  S
O41          C56   1.298       .  A
O41         Eu46   2.500   1_655  S
O42          C55   1.297       .  A
O42         Eu45   2.495   1_655  S
O43          C52   1.285       .  A
O43         Eu49   2.413       .  S
O44          C53   1.286       .  A
O44         Eu49   2.427       .  S
Eu45         O63   2.369   1_455  S
Eu45         O51   2.337       .  S
Eu46         O50   2.358   1_455  S
Eu46         O61   2.349       .  S
Eu47         O61   2.361       .  S
Eu47         O51   2.327       .  S
Eu48         O50   2.351       .  S
Eu48         O63   2.368       .  S
Eu49         O50   2.348   1_455  S
Eu49         O61   2.360       .  S
Eu49         O63   2.348   1_455  S
Eu49         O51   2.343       .  S
C52        C1639   1.451       .  S
C53        C1607   1.462       .  S
C54        C1572   1.483       .  S
C55        C1588   1.481       .  S
C56        C1556   1.490       .  S
C57        C1540   1.479       .  S
C58        C1476   1.474       .  S
C59        C1524   1.474       .  S
H60          O61   0.966       .  S
H62          O63   0.966       .  S
C64          C65   1.401       .  A
C64          C69   1.414       .  A
C64        C1447   1.476       .  S
C65          C66   1.397       .  A
C65          H70   1.082       .  S
C66          C67   1.396       .  A
C66        C1636   1.478       .  S
C67          C68   1.398       .  A
C67          H71   1.085       .  S
C68          C69   1.413       .  A
C68        C1463   1.478       .  S
C69          H72   1.083       .  S
C73          C74   1.415       .  A
C73          C78   1.401       .  A
C73        C1415   1.477   1_655  S
C74          C75   1.415       .  A
C74          H79   1.083   1_655  S
C75          C76   1.400       .  A
C75        C1431   1.482       .  S
C76          C77   1.397       .  A
C76          H80   1.085       .  S
C77          C78   1.399       .  A
C77        C1623   1.484       .  S
C78          H81   1.083       .  S
C82          C83   1.404       .  A
C82          C87   1.402   1_655  A
C82        C1380   1.465       .  S
C83          C84   1.403       .  A
C83          H88   1.083       .  S
C84          C85   1.401       .  A
C84        C1399   1.463       .  S
C85          C86   1.395   1_655  A
C85          H89   1.085   1_655  S
C86          C87   1.400       .  A
C86        C1604   1.480       .  S
C87          H90   1.082       .  S
O91         C102   1.287       .  A
O91        Eu127   2.437   1_545  S
O92         C103   1.293       .  A
O92        Eu126   2.474   1_545  S
O93         C104   1.293       .  A
O93         Eu99   2.467       .  S
O94         C105   1.293       .  A
O94         Eu99   2.473   1_455  S
O95         C105   1.287       .  A
O95        Eu129   2.428   1_545  S
O96         C104   1.290       .  A
O96        Eu128   2.452   1_545  S
O97         C103   1.296       .  A
O97         Eu99   2.497       .  S
O98         C102   1.294       .  A
O98         Eu99   2.477       .  S
Eu99        O109   2.360   1_655  S
Eu99        O101   2.374       .  S
Eu99        O100   2.363   1_655  S
Eu99        O107   2.348       .  S
O100       Eu129   2.366   1_545  S
O100       Eu126   2.360   1_445  S
O101       Eu127   2.373   1_545  S
O101       Eu128   2.367   1_545  S
C102       C1668   1.469       .  S
C103       C1428   1.491   1_655  S
C104       C1348   1.466       .  S
C105       C1364   1.462       .  S
H106        O107   0.964       .  S
O107       Eu128   2.360   1_545  S
O107       Eu126   2.329   1_545  S
H108        O109   0.965       .  S
O109       Eu127   2.337   1_445  S
O109       Eu129   2.351   1_545  S
O110        C133   1.289       .  A
O110       Eu126   2.453   1_455  S
O111        C134   1.290       .  A
O111       Eu127   2.460       .  S
O112        C135   1.298       .  A
O112       Eu128   2.492       .  S
O113        C136   1.293       .  A
O113       Eu129   2.469       .  S
O114        C137   1.292       .  A
O114       Eu129   2.471   1_545  S
O115        C138   1.300       .  A
O115       Eu128   2.510   1_545  S
O116        C139   1.287       .  A
O116       Eu130   2.433       .  S
O117        C140   1.290       .  A
O117       Eu130   2.455   1_455  S
O118        C139   1.295       .  A
O118       Eu128   2.481       .  S
O119        C140   1.292       .  A
O119       Eu129   2.465       .  S
O120        C135   1.290       .  A
O120       Eu126   2.460       .  S
O121        C138   1.286   1_565  A
O121       Eu127   2.437       .  S
O122        C137   1.291   1_565  A
O122       Eu127   2.467   1_455  S
O123        C136   1.289       .  A
O123       Eu126   2.452   1_455  S
O124        C133   1.294   1_655  A
O124       Eu130   2.471       .  S
O125        C134   1.291       .  A
O125       Eu130   2.457       .  S
Eu126       O144   2.356   1_655  S
Eu126       O132   2.369       .  S
Eu127       O131   2.344   1_655  S
Eu127       O142   2.340       .  S
Eu128       O142   2.344       .  S
Eu128       O132   2.368       .  S
Eu129       O131   2.343       .  S
Eu129       O144   2.350       .  S
Eu130       O131   2.348   1_655  S
Eu130       O142   2.354       .  S
Eu130       O144   2.348   1_655  S
Eu130       O132   2.359       .  S
C133       C1460   1.474       .  S
C134       C1396   1.466       .  S
C135       C1252   1.480   1_565  S
C136       C1271   1.473       .  S
C137       C1284   1.475       .  S
C138       C1303   1.480       .  S
C139       C1332   1.468       .  S
C140       C1319   1.472       .  S
H141        O142   0.965       .  S
H143        O144   0.964       .  S
C145        C146   1.399       .  A
C145        C150   1.406       .  A
C145       C1511   1.465       .  S
C146        C147   1.396       .  A
C146        H151   1.082       .  S
C147        C148   1.398       .  A
C147       C1367   1.478       .  S
C148        C149   1.403       .  A
C148        H152   1.084       .  S
C149        C150   1.406       .  A
C149       C1239   1.470       .  S
C150        H153   1.083       .  S
C154        C155   1.413       .  A
C154        C159   1.401       .  A
C154       C1223   1.482       .  S
C155        C156   1.414       .  A
C155        H160   1.083       .  S
C156        C157   1.400       .  A
C156       C1492   1.477       .  S
C157        C158   1.400       .  A
C157        H161   1.085       .  S
C158        C159   1.401       .  A
C158       C1351   1.485       .  S
C159        H162   1.081       .  S
C163        C164   1.405       .  A
C163        C168   1.398       .  A
C163       C1204   1.467       .  S
C164        C165   1.407       .  A
C164        H169   1.083       .  S
C165        C166   1.406       .  A
C165       C1527   1.471       .  S
C166        C167   1.399       .  A
C166        H170   1.084       .  S
C167        C168   1.397       .  A
C167       C1335   1.484       .  S
C168        H171   1.081       .  S
C172        C173   1.414       .  A
C172        C177   1.402       .  A
C172       C1479   1.477       .  S
C173        C174   1.414       .  A
C173        H178   1.083       .  S
C174        C175   1.404       .  A
C174       C1191   1.485       .  S
C175        C176   1.401       .  A
C175        H179   1.084       .  S
C176        C177   1.399       .  A
C176       C1316   1.486       .  S
C177        H180   1.083       .  S
C181        C182   1.416       .  A
C181        C186   1.405       .  A
C181       C1156   1.480       .  S
C182        C183   1.414       .  A
C182        H187   1.083   1_545  S
C183        C184   1.402       .  A
C183       C1300   1.479       .  S
C184        C185   1.393       .  A
C184        H188   1.085       .  S
C185        C186   1.397       .  A
C185       C1172   1.484       .  S
C186        H189   1.082       .  S
O190        C201   1.287       .  A
O190       Eu226   2.436       .  S
O191        C202   1.292       .  A
O191       Eu225   2.474       .  S
O192        C203   1.291       .  A
O192       Eu198   2.460       .  S
O193        C204   1.287       .  A
O193       Eu198   2.426       .  S
O194        C204   1.291       .  A
O194       Eu228   2.458       .  S
O195        C203   1.286       .  A
O195       Eu227   2.428       .  S
O196        C202   1.294       .  A
O196       Eu198   2.475       .  S
O197        C201   1.295       .  A
O197       Eu198   2.484   1_545  S
Eu198       O208   2.370   1_565  S
Eu198       O200   2.352   1_565  S
Eu198       O199   2.344       .  S
Eu198       O206   2.353       .  S
O199       Eu228   2.347       .  S
O199       Eu225   2.338       .  S
O200       Eu226   2.357       .  S
O200       Eu227   2.362   1_545  S
C201       C1236   1.471       .  S
C202       C1188   1.484       .  S
C203       C1108   1.457       .  S
C204       C1140   1.458       .  S
H205        O206   0.965       .  S
O206       Eu227   2.340       .  S
O206       Eu225   2.344       .  S
H207        O208   0.966       .  S
O208       Eu226   2.361       .  S
O208       Eu228   2.363   1_545  S
O209        C232   1.292       .  A
O209       Eu225   2.471       .  S
O210        C233   1.289       .  A
O210       Eu226   2.451       .  S
O211        C234   1.296       .  A
O211       Eu227   2.494       .  S
O212        C235   1.296       .  A
O212       Eu228   2.491       .  S
O213        C236   1.301       .  A
O213       Eu228   2.514   1_545  S
O214        C237   1.295       .  A
O214       Eu227   2.484   1_545  S
O215        C238   1.294       .  A
O215       Eu229   2.474       .  S
O216        C239   1.290       .  A
O216       Eu229   2.446       .  S
O217        C238   1.284       .  A
O217       Eu227   2.417       .  S
O218        C239   1.289       .  A
O218       Eu228   2.450       .  S
O219        C234   1.284       .  A
O219       Eu225   2.422       .  S
O220        C237   1.291       .  A
O220       Eu226   2.462       .  S
O221        C236   1.284       .  A
O221       Eu226   2.421       .  S
O222        C235   1.289       .  A
O222       Eu225   2.450       .  S
O223        C232   1.295       .  A
O223       Eu229   2.478       .  S
O224        C233   1.298       .  A
O224       Eu229   2.505   1_545  S
Eu225       O243   2.337       .  S
Eu225       O231   2.370       .  S
Eu226       O230   2.364       .  S
Eu226       O241   2.324       .  S
Eu227       O241   2.340   1_565  S
Eu227       O231   2.364       .  S
Eu228       O230   2.363   1_565  S
Eu228       O243   2.351       .  S
Eu229       O230   2.365   1_565  S
Eu229       O241   2.333   1_565  S
Eu229       O243   2.357       .  S
Eu229       O231   2.372       .  S
C232       C1207   1.477       .  S
C233       C1220   1.486       .  S
C234       C1060   1.473       .  S
C235       C1092   1.477       .  S
C236       C1076   1.479       .  S
C237       C1044   1.479       .  S
C238       C1175   1.458   1_565  S
C239       C1127   1.458       .  S
H240        O241   0.965       .  S
H242        O243   0.964       .  S
C244        C245   1.398       .  A
C244        C249   1.412       .  A
C244       C1028   1.473       .  S
C245        C246   1.397       .  A
C245        H250   1.082       .  S
C246        C247   1.401       .  A
C246       C1143   1.481       .  S
C247        C248   1.401       .  A
C247        H251   1.084       .  S
C248        C249   1.413       .  A
C248       C1268   1.481       .  S
C249        H252   1.083   1_565  S
C253        C254   1.413   1_565  A
C253        C258   1.399       .  A
C253       C1015   1.473   1_565  S
C254        C255   1.412   1_545  A
C254        H259   1.083       .  S
C255        C256   1.401       .  A
C255       C1255   1.475   1_565  S
C256        C257   1.396       .  A
C256        H260   1.085       .  S
C257        C258   1.398       .  A
C257       C1124   1.479       .  S
C258        H261   1.081       .  S
C262        C263   1.415       .  A
C262        C267   1.401       .  A
C262        C996   1.477       .  S
C263        C264   1.415       .  A
C263        H268   1.083       .  S
C264        C265   1.401   1_545  A
C264       C1287   1.480       .  S
C265        C266   1.394       .  A
C265        H269   1.085       .  S
C266        C267   1.396   1_565  A
C266       C1111   1.477       .  S
C267        H270   1.082   1_545  S
O271        C282   1.288       .  A
O271       Eu307   2.453   1_564  S
O272        C283   1.287       .  A
O272       Eu306   2.442   1_554  S
O273        C284   1.288       .  A
O273       Eu279   2.429       .  S
O274        C285   1.291       .  A
O274       Eu279   2.458   1_565  S
O275        C285   1.287       .  A
O275       Eu309   2.434   1_554  S
O276        C284   1.290       .  A
O276       Eu308   2.454   1_554  S
O277        C283   1.297       .  A
O277       Eu279   2.487       .  S
O278        C282   1.299       .  A
O278       Eu279   2.502   1_565  S
Eu279       O289   2.354   1_545  S
Eu279       O281   2.352       .  S
Eu279       O280   2.339   1_545  S
Eu279       O287   2.361       .  S
O280       Eu309   2.342   1_554  S
O280       Eu306   2.335   1_564  S
O281       Eu307   2.349   1_554  S
O281       Eu308   2.372   1_554  S
C282       C1159   1.486       .  S
C283        C999   1.470       .  S
C284        C980   1.458       .  S
C285        C964   1.460       .  S
H286        O287   0.965       .  S
O287       Eu308   2.345   1_554  S
O287       Eu306   2.349   1_554  S
H288        O289   0.965       .  S
O289       Eu307   2.345   1_564  S
O289       Eu309   2.352   1_554  S
O290        C313   1.287       .  A
O290       Eu306   2.432       .  S
O291        C314   1.285   1_565  A
O291       Eu307   2.422   1_565  S
O292        C315   1.300       .  A
O292       Eu308   2.519       .  S
O293        C316   1.290       .  A
O293       Eu309   2.452       .  S
O294        C317   1.295       .  A
O294       Eu309   2.485       .  S
O295        C318   1.295       .  A
O295       Eu308   2.484       .  S
O296        C319   1.291       .  A
O296       Eu310   2.453       .  S
O297        C320   1.293       .  A
O297       Eu310   2.466   1_565  S
O298        C319   1.290       .  A
O298       Eu308   2.450       .  S
O299        C320   1.285       .  A
O299       Eu309   2.423       .  S
O300        C315   1.285       .  A
O300       Eu306   2.429       .  S
O301        C318   1.288       .  A
O301       Eu307   2.447       .  S
O302        C317   1.287       .  A
O302       Eu307   2.438   1_565  S
O303        C316   1.293       .  A
O303       Eu306   2.478   1_565  S
O304        C313   1.298       .  A
O304       Eu310   2.507       .  S
O305        C314   1.298       .  A
O305       Eu310   2.503       .  S
Eu306       O324   2.328   1_545  S
Eu306       O312   2.367       .  S
Eu307       O311   2.362   1_545  S
Eu307       O322   2.342       .  S
Eu308       O322   2.352       .  S
Eu308       O312   2.367       .  S
Eu309       O311   2.349       .  S
Eu309       O324   2.355       .  S
Eu310       O311   2.370   1_545  S
Eu310       O322   2.349       .  S
Eu310       O324   2.353   1_545  S
Eu310       O312   2.369       .  S
C313       C1031   1.478       .  S
C314       C1012   1.471       .  S
C315        C916   1.479       .  S
C316        C884   1.476       .  S
C317        C900   1.476       .  S
C318        C871   1.472       .  S
C319        C932   1.462       .  S
C320        C951   1.453       .  S
H321        O322   0.963       .  S
H323        O324   0.964       .  S
C325        C326   1.404       .  A
C325        C330   1.416       .  A
C325       C1047   1.487       .  S
C326        C327   1.399       .  A
C326        H331   1.084       .  S
C327        C328   1.393       .  A
C327        C983   1.478       .  S
C328        C329   1.398       .  A
C328        H332   1.082       .  S
C329        C330   1.416       .  A
C329        C852   1.477       .  S
C330        H333   1.083       .  S
C334        C335   1.400       .  A
C334        C339   1.410       .  A
C334        C836   1.472       .  S
C335        C336   1.395       .  A
C335        H340   1.085       .  S
C336        C337   1.399       .  A
C336        C967   1.481       .  S
C337        C338   1.404       .  A
C337        H341   1.081       .  S
C338        C339   1.410       .  A
C338       C1063   1.477       .  S
C339        H342   1.083       .  S
C343        C344   1.419       .  A
C343        C348   1.407       .  A
C343        C820   1.488       .  S
C344        C345   1.417       .  A
C344        H349   1.083       .  S
C345        C346   1.396       .  A
C345       C1095   1.481       .  S
C346        C347   1.394       .  A
C346        H350   1.086       .  S
C347        C348   1.399       .  A
C347        C948   1.477       .  S
C348        H351   1.082       .  S
C352        C353   1.398       .  A
C352        C357   1.417       .  A
C352       C1079   1.485       .  S
C353        C354   1.398       .  A
C353        H358   1.085       .  S
C354        C355   1.400       .  A
C354        C935   1.484       .  S
C355        C356   1.402       .  A
C355        H359   1.083       .  S
C356        C357   1.419       .  A
C356        C807   1.481       .  S
C357        H360   1.083       .  S
O361        C372   1.291       .  A
O361       Eu397   2.465   1_554  S
O362        C373   1.290       .  A
O362       Eu396   2.460   1_554  S
O363        C374   1.290       .  A
O363       Eu369   2.453   1_455  S
O364        C375   1.287       .  A
O364       Eu369   2.430       .  S
O365        C375   1.294       .  A
O365       Eu399   2.477   1_554  S
O366        C374   1.289       .  A
O366       Eu398   2.449   1_554  S
O367        C373   1.295       .  A
O367       Eu369   2.482       .  S
O368        C372   1.295       .  A
O368       Eu369   2.485       .  S
Eu369       O379   2.361       .  S
Eu369       O371   2.360   1_655  S
Eu369       O370   2.340       .  S
Eu369       O377   2.357   1_655  S
O370       Eu399   2.345   1_554  S
O370       Eu396   2.342   1_554  S
O371       Eu397   2.354   1_454  S
O371       Eu398   2.364   1_554  S
C372       C1652   1.483       .  S
C373       C1383   1.477       .  S
C374        C772   1.460       .  S
C375        C788   1.465       .  S
H376        O377   0.965       .  S
O377       Eu398   2.356   1_554  S
O377       Eu396   2.343   1_454  S
H378        O379   0.966       .  S
O379       Eu397   2.365   1_554  S
O379       Eu399   2.367   1_554  S
O380        C403   1.287       .  A
O380       Eu396   2.436       .  S
O381        C404   1.290   1_655  A
O381       Eu397   2.455       .  S
O382        C405   1.294       .  A
O382       Eu398   2.477       .  S
O383        C406   1.297       .  A
O383       Eu399   2.492       .  S
O384        C407   1.298       .  A
O384       Eu399   2.501       .  S
O385        C408   1.296       .  A
O385       Eu398   2.482       .  S
O386        C409   1.290       .  A
O386       Eu400   2.454   1_455  S
O387        C410   1.290       .  A
O387       Eu400   2.449       .  S
O388        C409   1.291       .  A
O388       Eu398   2.453       .  S
O389        C410   1.290       .  A
O389       Eu399   2.452       .  S
O390        C405   1.292       .  A
O390       Eu396   2.478   1_455  S
O391        C408   1.287       .  A
O391       Eu397   2.444   1_455  S
O392        C407   1.289       .  A
O392       Eu397   2.453       .  S
O393        C406   1.288       .  A
O393       Eu396   2.436       .  S
O394        C403   1.301       .  A
O394       Eu400   2.524       .  S
O395        C404   1.299       .  A
O395       Eu400   2.502   1_455  S
Eu396       O414   2.381       .  S
Eu396       O402   2.336   1_655  S
Eu397       O401   2.334       .  S
Eu397       O412   2.371   1_655  S
Eu398       O412   2.354       .  S
Eu398       O402   2.350       .  S
Eu399       O401   2.335       .  S
Eu399       O414   2.383       .  S
Eu400       O401   2.346       .  S
Eu400       O412   2.371   1_655  S
Eu400       O414   2.368       .  S
Eu400       O402   2.346   1_655  S
C403       C1444   1.486   1_655  S
C404       C1412   1.483       .  S
C405        C708   1.484       .  S
C406        C676   1.473       .  S
C407        C692   1.483       .  S
C408        C724   1.475       .  S
C409        C756   1.466       .  S
C410        C740   1.463       .  S
H411        O412   0.966       .  S
H413        O414   0.964       .  S
C415        C416   1.416       .  A
C415        C420   1.406       .  A
C415       C1559   1.493       .  S
C416        C417   1.417       .  A
C416        H421   1.083       .  S
C417        C418   1.399       .  A
C417        C663   1.475       .  S
C418        C419   1.393       .  A
C418        H422   1.085       .  S
C419        C420   1.402       .  A
C419        C791   1.483       .  S
C420        H423   1.080       .  S
C424        C425   1.401       .  A
C424        C429   1.408       .  A
C424        C647   1.469       .  S
C425        C426   1.401       .  A
C425        H430   1.082       .  S
C426        C427   1.397       .  A
C426        C775   1.480       .  S
C427        C428   1.401       .  A
C427        H431   1.085       .  S
C428        C429   1.407       .  A
C428       C1543   1.474       .  S
C429        H432   1.083       .  S
C433        C434   1.403       .  A
C433        C438   1.413       .  A
C433        C631   1.480       .  S
C434        C435   1.401       .  A
C434        H439   1.085       .  S
C435        C436   1.397       .  A
C435        C759   1.483       .  S
C436        C437   1.398       .  A
C436        H440   1.081       .  S
C437        C438   1.413       .  A
C437       C1575   1.475       .  S
C438        H441   1.083       .  S
C442        C443   1.397       .  A
C442        C447   1.419       .  A
C442       C1591   1.479       .  S
C443        C444   1.394       .  A
C443        H448   1.086       .  S
C444        C445   1.400       .  A
C444        C743   1.482       .  S
C445        C446   1.403       .  A
C445        H449   1.081       .  S
C446        C447   1.419       .  A
C446        C612   1.491       .  S
C447        H450   1.083       .  S
C451        C452   1.414       .  A
C451        C456   1.406       .  A
C451        C727   1.481       .  S
C452        C453   1.413       .  A
C452        H457   1.083       .  S
C453        C454   1.399       .  A
C453        C919   1.474       .  S
C454        C455   1.396       .  A
C454        H458   1.082       .  S
C455        C456   1.397       .  A
C455        C599   1.484       .  S
C456        H459   1.084       .  S
O460        C471   1.290       .  A
O460       Eu496   2.451       .  S
O461        C472   1.287       .  A
O461       Eu495   2.438       .  S
O462        C473   1.292       .  A
O462       Eu468   2.468   1_556  S
O463        C474   1.288       .  A
O463       Eu468   2.434       .  S
O464        C474   1.288       .  A
O464       Eu498   2.443       .  S
O465        C473   1.287       .  A
O465       Eu497   2.433       .  S
O466        C472   1.300       .  A
O466       Eu468   2.511   1_556  S
O467        C471   1.299       .  A
O467       Eu468   2.508       .  S
Eu468       O478   2.353       .  S
Eu468       O470   2.373       .  S
Eu468       O469   2.376   1_554  S
Eu468       O476   2.338   1_554  S
O469       Eu498   2.361   1_556  S
O469       Eu495   2.364       .  S
O470       Eu496   2.376       .  S
O470       Eu497   2.353   1_554  S
C471        C855   1.480       .  S
C472        C804   1.479       .  S
C473        C596   1.465       .  S
C474        C551   1.454       .  S
H475        O476   0.965       .  S
O476       Eu497   2.342       .  S
O476       Eu495   2.341       .  S
H477        O478   0.965       .  S
O478       Eu496   2.342       .  S
O478       Eu498   2.346       .  S
O479        C502   1.288       .  A
O479       Eu495   2.445       .  S
O480        C503   1.293       .  A
O480       Eu496   2.477       .  S
O481        C504   1.292       .  A
O481       Eu497   2.468       .  S
O482        C505   1.295       .  A
O482       Eu498   2.483   1_556  S
O483        C506   1.291       .  A
O483       Eu498   2.460       .  S
O484        C507   1.294       .  A
O484       Eu497   2.481   1_554  S
O485        C508   1.292       .  A
O485       Eu499   2.462   1_556  S
O486        C509   1.289       .  A
O486       Eu499   2.440       .  S
O487        C508   1.286       .  A
O487       Eu497   2.429       .  S
O488        C509   1.289       .  A
O488       Eu498   2.448       .  S
O489        C504   1.292       .  A
O489       Eu495   2.463       .  S
O490        C507   1.286       .  A
O490       Eu496   2.436       .  S
O491        C506   1.292       .  A
O491       Eu496   2.469       .  S
O492        C505   1.288       .  A
O492       Eu495   2.450       .  S
O493        C502   1.295       .  A
O493       Eu499   2.485   1_556  S
O494        C503   1.290       .  A
O494       Eu499   2.443       .  S
Eu495       O513   2.351       .  S
Eu495       O501   2.337       .  S
Eu496       O500   2.336       .  S
Eu496       O511   2.356       .  S
Eu497       O511   2.354   1_556  S
Eu497       O501   2.350       .  S
Eu498       O500   2.346       .  S
Eu498       O513   2.361   1_554  S
Eu499       O500   2.346       .  S
Eu499       O511   2.363       .  S
Eu499       O513   2.359   1_554  S
Eu499       O501   2.329   1_554  S
C502        C823   1.479       .  S
C503        C839   1.473       .  S
C504        C628   1.474       .  S
C505        C615   1.478       .  S
C506        C660   1.470       .  S
C507        C644   1.469       .  S
C508        C567   1.461       .  S
C509        C583   1.458       .  S
H510        O511   0.965       .  S
H512        O513   0.966       .  S
C514        C515   1.403   1_556  A
C514        C519   1.409       .  A
C514        C903   1.478       .  S
C515        C516   1.400       .  A
C515        H520   1.084       .  S
C516        C517   1.396       .  A
C516        C580   1.479       .  S
C517        C518   1.399   1_554  A
C517        H521   1.082       .  S
C518        C519   1.409       .  A
C518        C679   1.470       .  S
C519        H522   1.083       .  S
C523        C524   1.401       .  A
C523        C528   1.420       .  A
C523        C887   1.485       .  S
C524        C525   1.399       .  A
C524        H529   1.081       .  S
C525        C526   1.394       .  A
C525        C564   1.481       .  S
C526        C527   1.400       .  A
C526        H530   1.085       .  S
C527        C528   1.420       .  A
C527        C711   1.484       .  S
C528        H531   1.083       .  S
C532        C533   1.400       .  A
C532        C537   1.412       .  A
C532        C695   1.472       .  S
C533        C534   1.397   1_556  A
C533        H538   1.082   1_556  S
C534        C535   1.396       .  A
C534        C548   1.477       .  S
C535        C536   1.399   1_554  A
C535        H539   1.085       .  S
C536        C537   1.411       .  A
C536        C868   1.472       .  S
C537        H540   1.083       .  S
C541        C546   1.382       .  A
C541        C542   1.395       .  A
C541        O547   1.310       .  A
C542        C543   1.393       .  A
C542        H553   1.083       .  S
C543        C552   1.351       .  A
C543        C544   1.381       .  A
C544        C545   1.400       .  A
C544        O550   1.316       .  A
C545        C546   1.401       .  A
C545        H554   1.083       .  S
C546        C549   1.359       .  A
O547        C548   1.328       .  A
C548        C549   1.396       .  A
C549        H555   1.081       .  S
O550        C551   1.329       .  A
C551        C552   1.386       .  A
C552        H556   1.083       .  S
C557        C562   1.379       .  A
C557        C558   1.404       .  A
C557        O563   1.316       .  A
C558        C559   1.402       .  A
C558        H569   1.083       .  S
C559        C568   1.360       .  A
C559        C560   1.381       .  A
C560        C561   1.396       .  A
C560        O566   1.314       .  A
C561        C562   1.396       .  A
C561        H570   1.082       .  S
C562        C565   1.353       .  A
O563        C564   1.334       .  A
C564        C565   1.393       .  A
C565        H571   1.081       .  S
O566        C567   1.326       .  A
C567        C568   1.393       .  A
C568        H572   1.083       .  S
C573        C578   1.380       .  A
C573        C574   1.398       .  A
C573        O579   1.312       .  A
C574        C575   1.396       .  A
C574        H585   1.083       .  S
C575        C584   1.356       .  A
C575        C576   1.381       .  A
C576        C577   1.400       .  A
C576        O582   1.315       .  A
C577        C578   1.400       .  A
C577        H586   1.083       .  S
C578        C581   1.358       .  A
O579        C580   1.329       .  A
C580        C581   1.397       .  A
C581        H587   1.081       .  S
O582        C583   1.328       .  A
C583        C584   1.388       .  A
C584        H588   1.083       .  S
C589        C594   1.381       .  A
C589        C590   1.399       .  A
C589        O595   1.320       .  A
C590        C591   1.402       .  A
C590        H601   1.082       .  S
C591        C600   1.355       .  A
C591        C592   1.380       .  A
C592        C593   1.400       .  A
C592        O598   1.316       .  A
C593        C594   1.400       .  A
C593        H602   1.083       .  S
C594        C597   1.353       .  A
O595        C596   1.329       .  A
C596        C597   1.391       .  A
C597        H603   1.083       .  S
O598        C599   1.332       .  A
C599        C600   1.397       .  A
C600        H604   1.081       .  S
C605        C610   1.378       .  A
C605        C606   1.407       .  A
C605        O611   1.315       .  A
C606        C607   1.403       .  A
C606        H617   1.082       .  S
C607        C616   1.369       .  A
C607        C608   1.379       .  A
C608        C609   1.410       .  A
C608        O614   1.319       .  A
C609        C610   1.407       .  A
C609        H618   1.082       .  S
C610        C613   1.376       .  A
O611        C612   1.335       .  A
C612        C613   1.395       .  A
C613        H619   1.082       .  S
O614        C615   1.333       .  A
C615        C616   1.393       .  A
C616        H620   1.083       .  S
C621        C626   1.380       .  A
C621        C622   1.402       .  A
C621        O627   1.320       .  A
C622        C623   1.403       .  A
C622        H633   1.082       .  S
C623        C632   1.360       .  A
C623        C624   1.380       .  A
C624        C625   1.408       .  A
C624        O630   1.325       .  A
C625        C626   1.407       .  A
C625        H634   1.082       .  S
C626        C629   1.366       .  A
O627        C628   1.330       .  A
C628        C629   1.394       .  A
C629        H635   1.083       .  S
O630        C631   1.333       .  A
C631        C632   1.393       .  A
C632        H636   1.083       .  S
C637        C642   1.380       .  A
C637        C638   1.404       .  A
C637        O643   1.317       .  A
C638        C639   1.403       .  A
C638        H649   1.082       .  S
C639        C648   1.366       .  A
C639        C640   1.380       .  A
C640        C641   1.404       .  A
C640        O646   1.315       .  A
C641        C642   1.401       .  A
C641        H650   1.082       .  S
C642        C645   1.364       .  A
O643        C644   1.332       .  A
C644        C645   1.390       .  A
C645        H651   1.082       .  S
O646        C647   1.331       .  A
C647        C648   1.390       .  A
C648        H652   1.082       .  S
C653        C658   1.380       .  A
C653        C654   1.406       .  A
C653        O659   1.320       .  A
C654        C655   1.406       .  A
C654        H665   1.082       .  S
C655        C664   1.367       .  A
C655        C656   1.379       .  A
C656        C657   1.405       .  A
C656        O662   1.318       .  A
C657        C658   1.403       .  A
C657        H666   1.082       .  S
C658        C661   1.364       .  A
O659        C660   1.331       .  A
C660        C661   1.392       .  A
C661        H667   1.083       .  S
O662        C663   1.333       .  A
C663        C664   1.395       .  A
C664        H668   1.082       .  S
C669        C674   1.380       .  A
C669        C670   1.404       .  A
C669        O675   1.323       .  A
C670        C671   1.406       .  A
C670        H681   1.082       .  S
C671        C680   1.361       .  A
C671        C672   1.380       .  A
C672        C673   1.402       .  A
C672        O678   1.319       .  A
C673        C674   1.402       .  A
C673        H682   1.082       .  S
C674        C677   1.358       .  A
O675        C676   1.331       .  A
C676        C677   1.393       .  A
C677        H683   1.083       .  S
O678        C679   1.330       .  A
C679        C680   1.395       .  A
C680        H684   1.083       .  S
C685        C690   1.379       .  A
C685        C686   1.408       .  A
C685        O691   1.320       .  A
C686        C687   1.405       .  A
C686        H697   1.082       .  S
C687        C696   1.367       .  A
C687        C688   1.378       .  A
C688        C689   1.407       .  A
C688        O694   1.318       .  A
C689        C690   1.405       .  A
C689        H698   1.082       .  S
C690        C693   1.369       .  A
O691        C692   1.334       .  A
C692        C693   1.394       .  A
C693        H699   1.082       .  S
O694        C695   1.334       .  A
C695        C696   1.393       .  A
C696        H700   1.083       .  S
C701        C706   1.379   1_556  A
C701        C702   1.412       .  A
C701        O707   1.324       .  A
C702        C703   1.410       .  A
C702        H713   1.082       .  S
C703        C712   1.375       .  A
C703        C704   1.379   1_556  A
C704        C705   1.406       .  A
C704        O710   1.316       .  A
C705        C706   1.403       .  A
C705        H714   1.082       .  S
C706        C709   1.366       .  A
O707        C708   1.335       .  A
C708        C709   1.393   1_556  A
C709        H715   1.083       .  S
O710        C711   1.334   1_554  A
C711        C712   1.396       .  A
C712        H716   1.082       .  S
C717        C722   1.379       .  A
C717        C718   1.413       .  A
C717        O723   1.322       .  A
C718        C719   1.411       .  A
C718        H729   1.082       .  S
C719        C728   1.377       .  A
C719        C720   1.380       .  A
C720        C721   1.398       .  A
C720        O726   1.309       .  A
C721        C722   1.394       .  A
C721        H730   1.082       .  S
C722        C725   1.359       .  A
O723        C724   1.337       .  A
C724        C725   1.387       .  A
C725        H731   1.083       .  S
O726        C727   1.328       .  A
C727        C728   1.397       .  A
C728        H732   1.082       .  S
C733        C738   1.380       .  A
C733        C734   1.399       .  A
C733        O739   1.316       .  A
C734        C735   1.400       .  A
C734        H745   1.083       .  S
C735        C744   1.358       .  A
C735        C736   1.381       .  A
C736        C737   1.401       .  A
C736        O742   1.313       .  A
C737        C738   1.398       .  A
C737        H746   1.083       .  S
C738        C741   1.360       .  A
O739        C740   1.330       .  A
C740        C741   1.389       .  A
C741        H747   1.082       .  S
O742        C743   1.332       .  A
C743        C744   1.395       .  A
C744        H748   1.081       .  S
C749        C754   1.380       .  A
C749        C750   1.402       .  A
C749        O755   1.317       .  A
C750        C751   1.402       .  A
C750        H761   1.083       .  S
C751        C760   1.358       .  A
C751        C752   1.379       .  A
C752        C753   1.400       .  A
C752        O758   1.314       .  A
C753        C754   1.399       .  A
C753        H762   1.082       .  S
C754        C757   1.359       .  A
O755        C756   1.331       .  A
C756        C757   1.390       .  A
C757        H763   1.082       .  S
O758        C759   1.331       .  A
C759        C760   1.399       .  A
C760        H764   1.081       .  S
C765        C770   1.380       .  A
C765        C766   1.399       .  A
C765        O771   1.314       .  A
C766        C767   1.398       .  A
C766        H777   1.082       .  S
C767        C776   1.357       .  A
C767        C768   1.380       .  A
C768        C769   1.402       .  A
C768        O774   1.313       .  A
C769        C770   1.399       .  A
C769        H778   1.083       .  S
C770        C773   1.360       .  A
O771        C772   1.328       .  A
C772        C773   1.390       .  A
C773        H779   1.083       .  S
O774        C775   1.331       .  A
C775        C776   1.394       .  A
C776        H780   1.081       .  S
C781        C786   1.380       .  A
C781        C782   1.396       .  A
C781        O787   1.310       .  A
C782        C783   1.395       .  A
C782        H793   1.083       .  S
C783        C792   1.355       .  A
C783        C784   1.379       .  A
C784        C785   1.407       .  A
C784        O790   1.317       .  A
C785        C786   1.404       .  A
C785        H794   1.082       .  S
C786        C789   1.369       .  A
O787        C788   1.328       .  A
C788        C789   1.392       .  A
C789        H795   1.082       .  S
O790        C791   1.334       .  A
C791        C792   1.392       .  A
C792        H796   1.081       .  S
C797        C802   1.379       .  A
C797        C798   1.408       .  A
C797        O803   1.320       .  A
C798        C799   1.407       .  A
C798        H809   1.082       .  S
C799        C808   1.369       .  A
C799        C800   1.379       .  A
C800        C801   1.409       .  A
C800        O806   1.321       .  A
C801        C802   1.406       .  A
C801        H810   1.082       .  S
C802        C805   1.371       .  A
O803        C804   1.333       .  A
C804        C805   1.393       .  A
C805        H811   1.082       .  S
O806        C807   1.334       .  A
C807        C808   1.396       .  A
C808        H812   1.083       .  S
C813        C818   1.380       .  A
C813        C814   1.409       .  A
C813        O819   1.329       .  A
C814        C815   1.410       .  A
C814        H825   1.082       .  S
C815        C824   1.362       .  A
C815        C816   1.380       .  A
C816        C817   1.402       .  A
C816        O822   1.324       .  A
C817        C818   1.404       .  A
C817        H826   1.082       .  S
C818        C821   1.356       .  A
O819        C820   1.336       .  A
C820        C821   1.393       .  A
C821        H827   1.083       .  S
O822        C823   1.331       .  A
C823        C824   1.396       .  A
C824        H828   1.083       .  S
C829        C834   1.380       .  A
C829        C830   1.398       .  A
C829        O835   1.311       .  A
C830        C831   1.396       .  A
C830        H841   1.083       .  S
C831        C840   1.354       .  A
C831        C832   1.380       .  A
C832        C833   1.409       .  A
C832        O838   1.324       .  A
C833        C834   1.408       .  A
C833        H842   1.082       .  S
C834        C837   1.371       .  A
O835        C836   1.329       .  A
C836        C837   1.393       .  A
C837        H843   1.082       .  S
O838        C839   1.334       .  A
C839        C840   1.389       .  A
C840        H844   1.083       .  S
C845        C850   1.378       .  A
C845        C846   1.405       .  A
C845        O851   1.322       .  A
C846        C847   1.405       .  A
C846        H857   1.082       .  S
C847        C856   1.361       .  A
C847        C848   1.379       .  A
C848        C849   1.408       .  A
C848        O854   1.327       .  A
C849        C850   1.410       .  A
C849        H858   1.082       .  S
C850        C853   1.364       .  A
O851        C852   1.334       .  A
C852        C853   1.397       .  A
C853        H859   1.083       .  S
O854        C855   1.335       .  A
C855        C856   1.393       .  A
C856        H860   1.083       .  S
C861        C866   1.379       .  A
C861        C862   1.405       .  A
C861        O867   1.317       .  A
C862        C863   1.402       .  A
C862        H873   1.082       .  S
C863        C872   1.365       .  A
C863        C864   1.379       .  A
C864        C865   1.405       .  A
C864        O870   1.319       .  A
C865        C866   1.405       .  A
C865        H874   1.082       .  S
C866        C869   1.366       .  A
O867        C868   1.333       .  A
C868        C869   1.393       .  A
C869        H875   1.082       .  S
O870        C871   1.332       .  A
C871        C872   1.391       .  A
C872        H876   1.083       .  S
C877        C882   1.379       .  A
C877        C878   1.410       .  A
C877        O883   1.324       .  A
C878        C879   1.410       .  A
C878        H889   1.082       .  S
C879        C888   1.374       .  A
C879        C880   1.379       .  A
C880        C881   1.405   1_556  A
C880        O886   1.317       .  A
C881        C882   1.402   1_554  A
C881        H890   1.083       .  S
C882        C885   1.362       .  A
O883        C884   1.333       .  A
C884        C885   1.392       .  A
C885        H891   1.083   1_556  S
O886        C887   1.334       .  A
C887        C888   1.396       .  A
C888        H892   1.082       .  S
C893        C898   1.381       .  A
C893        C894   1.400       .  A
C893        O899   1.320       .  A
C894        C895   1.401       .  A
C894        H905   1.082       .  S
C895        C904   1.356       .  A
C895        C896   1.381       .  A
C896        C897   1.408       .  A
C896        O902   1.325       .  A
C897        C898   1.408       .  A
C897        H906   1.082       .  S
C898        C901   1.364       .  A
O899        C900   1.329       .  A
C900        C901   1.397       .  A
C901        H907   1.083       .  S
O902        C903   1.333       .  A
C903        C904   1.391       .  A
C904        H908   1.083       .  S
C909        C914   1.378       .  A
C909        C910   1.406       .  A
C909        O915   1.317       .  A
C910        C911   1.404       .  A
C910        H921   1.082       .  S
C911        C920   1.367       .  A
C911        C912   1.378       .  A
C912        C913   1.410   1_556  A
C912        O918   1.319       .  A
C913        C914   1.406   1_554  A
C913        H922   1.082       .  S
C914        C917   1.374       .  A
O915        C916   1.333       .  A
C916        C917   1.395       .  A
C917        H923   1.082   1_556  S
O918        C919   1.335       .  A
C919        C920   1.394       .  A
C920        H924   1.083       .  S
C925        C930   1.378       .  A
C925        C926   1.400       .  A
C925        O931   1.317       .  A
C926        C927   1.402       .  A
C926        H937   1.082       .  S
C927        C936   1.358       .  A
C927        C928   1.380       .  A
C928        C929   1.399       .  A
C928        O934   1.311       .  A
C929        C930   1.396       .  A
C929        H938   1.083       .  S
C930        C933   1.355       .  A
O931        C932   1.331       .  A
C932        C933   1.390       .  A
C933        H939   1.083       .  S
O934        C935   1.331       .  A
C935        C936   1.398       .  A
C936        H940   1.081       .  S
C941        C946   1.381       .  A
C941        C942   1.399       .  A
C941        O947   1.309       .  A
C942        C943   1.394       .  A
C942        H953   1.082       .  S
C943        C952   1.360       .  A
C943        C944   1.381       .  A
C944        C945   1.400       .  A
C944        O950   1.311       .  A
C945        C946   1.398       .  A
C945        H954   1.083       .  S
C946        C949   1.362       .  A
O947        C948   1.329       .  A
C948        C949   1.394       .  A
C949        H955   1.082       .  S
O950        C951   1.329       .  A
C951        C952   1.385       .  A
C952        H956   1.082       .  S
C957        C962   1.381       .  A
C957        C958   1.397       .  A
C957        O963   1.312       .  A
C958        C959   1.397       .  A
C958        H969   1.082       .  S
C959        C968   1.356       .  A
C959        C960   1.378       .  A
C960        C961   1.403       .  A
C960        O966   1.314       .  A
C961        C962   1.401       .  A
C961        H970   1.082       .  S
C962        C965   1.362       .  A
O963        C964   1.327       .  A
C964        C965   1.392       .  A
C965        H971   1.083       .  S
O966        C967   1.333       .  A
C967        C968   1.395       .  A
C968        H972   1.081       .  S
C973        C978   1.380       .  A
C973        C974   1.401       .  A
C973        O979   1.318       .  A
C974        C975   1.403       .  A
C974        H985   1.082       .  S
C975        C984   1.357       .  A
C975        C976   1.380       .  A
C976        C977   1.395       .  A
C976        O982   1.311       .  A
C977        C978   1.394       .  A
C977        H986   1.082       .  S
C978        C981   1.349       .  A
O979        C980   1.330       .  A
C980        C981   1.388       .  A
C981        H987   1.083       .  S
O982        C983   1.328       .  A
C983        C984   1.398       .  A
C984        H988   1.081       .  S
C989        C994   1.380       .  A
C989        C990   1.402       .  A
C989        O995   1.314       .  A
C990        C991   1.398       .  A
C990       H1001   1.082       .  S
C991       C1000   1.362       .  A
C991        C992   1.379       .  A
C992        C993   1.409       .  A
C992        O998   1.321       .  A
C993        C994   1.408       .  A
C993       H1002   1.082   1_545  S
C994        C997   1.372       .  A
O995        C996   1.331       .  A
C996        C997   1.395       .  A
C997       H1003   1.082   1_545  S
O998        C999   1.334       .  A
C999       C1000   1.388       .  A
C1000      H1004   1.083       .  S
C1005      C1010   1.380   1_545  A
C1005      C1006   1.403       .  A
C1005      O1011   1.323       .  A
C1006      C1007   1.405       .  A
C1006      H1017   1.082       .  S
C1007      C1016   1.361       .  A
C1007      C1008   1.379   1_545  A
C1008      C1009   1.405       .  A
C1008      O1014   1.321       .  A
C1009      C1010   1.405       .  A
C1009      H1018   1.083       .  S
C1010      C1013   1.359       .  A
O1011      C1012   1.330       .  A
C1012      C1013   1.394   1_545  A
C1013      H1019   1.083       .  S
O1014      C1015   1.333   1_565  A
C1015      C1016   1.394       .  A
C1016      H1020   1.083       .  S
C1021      C1026   1.379   1_565  A
C1021      C1022   1.400       .  A
C1021      O1027   1.319       .  A
C1022      C1023   1.401       .  A
C1022      H1033   1.082       .  S
C1023      C1032   1.356       .  A
C1023      C1024   1.380   1_565  A
C1024      C1025   1.409       .  A
C1024      O1030   1.328       .  A
C1025      C1026   1.411       .  A
C1025      H1034   1.082       .  S
C1026      C1029   1.366       .  A
O1027      C1028   1.330       .  A
C1028      C1029   1.397   1_565  A
C1029      H1035   1.083       .  S
O1030      C1031   1.334       .  A
C1031      C1032   1.391   1_545  A
C1032      H1036   1.083       .  S
C1037      C1042   1.380       .  A
C1037      C1038   1.402       .  A
C1037      O1043   1.320       .  A
C1038      C1039   1.404       .  A
C1038      H1049   1.083       .  S
C1039      C1048   1.359       .  A
C1039      C1040   1.379       .  A
C1040      C1041   1.411       .  A
C1040      O1046   1.327       .  A
C1041      C1042   1.410       .  A
C1041      H1050   1.082       .  S
C1042      C1045   1.369       .  A
O1043      C1044   1.331       .  A
C1044      C1045   1.396       .  A
C1045      H1051   1.082       .  S
O1046      C1047   1.335       .  A
C1047      C1048   1.395       .  A
C1048      H1052   1.083       .  S
C1053      C1058   1.381       .  A
C1053      C1054   1.398       .  A
C1053      O1059   1.321       .  A
C1054      C1055   1.401       .  A
C1054      H1065   1.082       .  S
C1055      C1064   1.352       .  A
C1055      C1056   1.381       .  A
C1056      C1057   1.406       .  A
C1056      O1062   1.326       .  A
C1057      C1058   1.407       .  A
C1057      H1066   1.082       .  S
C1058      C1061   1.360       .  A
O1059      C1060   1.328       .  A
C1060      C1061   1.395       .  A
C1061      H1067   1.083       .  S
O1062      C1063   1.332       .  A
C1063      C1064   1.391       .  A
C1064      H1068   1.083       .  S
C1069      C1074   1.378       .  A
C1069      C1070   1.411       .  A
C1069      O1075   1.319       .  A
C1070      C1071   1.408       .  A
C1070      H1081   1.082       .  S
C1071      C1080   1.374       .  A
C1071      C1072   1.379       .  A
C1072      C1073   1.406       .  A
C1072      O1078   1.316       .  A
C1073      C1074   1.401       .  A
C1073      H1082   1.082       .  S
C1074      C1077   1.368       .  A
O1075      C1076   1.336       .  A
C1076      C1077   1.390       .  A
C1077      H1083   1.082       .  S
O1078      C1079   1.334       .  A
C1079      C1080   1.394       .  A
C1080      H1084   1.082       .  S
C1085      C1090   1.380       .  A
C1085      C1086   1.403       .  A
C1085      O1091   1.321       .  A
C1086      C1087   1.405       .  A
C1086      H1097   1.082       .  S
C1087      C1096   1.362       .  A
C1087      C1088   1.378       .  A
C1088      C1089   1.409       .  A
C1088      O1094   1.325       .  A
C1089      C1090   1.408       .  A
C1089      H1098   1.082       .  S
C1090      C1093   1.367       .  A
O1091      C1092   1.330       .  A
C1092      C1093   1.395       .  A
C1093      H1099   1.083       .  S
O1094      C1095   1.335       .  A
C1095      C1096   1.396       .  A
C1096      H1100   1.083       .  S
C1101      C1106   1.381       .  A
C1101      C1102   1.396       .  A
C1101      O1107   1.310       .  A
C1102      C1103   1.395       .  A
C1102      H1113   1.083       .  S
C1103      C1112   1.354       .  A
C1103      C1104   1.379       .  A
C1104      C1105   1.402       .  A
C1104      O1110   1.314       .  A
C1105      C1106   1.400       .  A
C1105      H1114   1.082       .  S
C1106      C1109   1.362       .  A
O1107      C1108   1.327       .  A
C1108      C1109   1.390       .  A
C1109      H1115   1.082       .  S
O1110      C1111   1.331       .  A
C1111      C1112   1.393       .  A
C1112      H1116   1.081       .  S
C1117      C1122   1.380       .  A
C1117      C1118   1.399       .  A
C1117      O1123   1.313       .  A
C1118      C1119   1.397       .  A
C1118      H1129   1.083       .  S
C1119      C1128   1.355       .  A
C1119      C1120   1.381       .  A
C1120      C1121   1.398       .  A
C1120      O1126   1.315       .  A
C1121      C1122   1.399       .  A
C1121      H1130   1.083       .  S
C1122      C1125   1.354       .  A
O1123      C1124   1.331       .  A
C1124      C1125   1.395       .  A
C1125      H1131   1.081       .  S
O1126      C1127   1.328       .  A
C1127      C1128   1.388       .  A
C1128      H1132   1.083       .  S
C1133      C1138   1.380       .  A
C1133      C1134   1.399       .  A
C1133      O1139   1.317       .  A
C1134      C1135   1.402       .  A
C1134      H1145   1.083       .  S
C1135      C1144   1.358       .  A
C1135      C1136   1.382       .  A
C1136      C1137   1.397       .  A
C1136      O1142   1.310       .  A
C1137      C1138   1.394       .  A
C1137      H1146   1.083       .  S
C1138      C1141   1.352       .  A
O1139      C1140   1.328       .  A
C1140      C1141   1.389       .  A
C1141      H1147   1.083       .  S
O1142      C1143   1.328       .  A
C1143      C1144   1.398       .  A
C1144      H1148   1.081       .  S
C1149      C1154   1.380       .  A
C1149      C1150   1.402       .  A
C1149      O1155   1.312       .  A
C1150      C1151   1.399       .  A
C1150      H1161   1.082       .  S
C1151      C1160   1.364       .  A
C1151      C1152   1.379       .  A
C1152      C1153   1.414       .  A
C1152      O1158   1.325       .  A
C1153      C1154   1.411       .  A
C1153      H1162   1.082   1_565  S
C1154      C1157   1.377   1_565  A
O1155      C1156   1.330   1_565  A
C1156      C1157   1.396       .  A
C1157      H1163   1.082       .  S
O1158      C1159   1.338       .  A
C1159      C1160   1.390       .  A
C1160      H1164   1.082       .  S
C1165      C1170   1.380       .  A
C1165      C1166   1.401       .  A
C1165      O1171   1.314       .  A
C1166      C1167   1.398       .  A
C1166      H1177   1.082       .  S
C1167      C1176   1.360       .  A
C1167      C1168   1.380       .  A
C1168      C1169   1.399       .  A
C1168      O1174   1.313       .  A
C1169      C1170   1.400       .  A
C1169      H1178   1.083       .  S
C1170      C1173   1.358       .  A
O1171      C1172   1.332       .  A
C1172      C1173   1.396       .  A
C1173      H1179   1.081       .  S
O1174      C1175   1.330       .  A
C1175      C1176   1.388       .  A
C1176      H1180   1.082       .  S
C1181      C1186   1.379       .  A
C1181      C1182   1.413       .  A
C1181      O1187   1.326       .  A
C1182      C1183   1.412       .  A
C1182      H1193   1.082       .  S
C1183      C1192   1.375       .  A
C1183      C1184   1.379       .  A
C1184      C1185   1.403       .  A
C1184      O1190   1.316       .  A
C1185      C1186   1.400       .  A
C1185      H1194   1.082       .  S
C1186      C1189   1.361       .  A
O1187      C1188   1.337       .  A
C1188      C1189   1.391       .  A
C1189      H1195   1.083       .  S
O1190      C1191   1.332       .  A
C1191      C1192   1.396       .  A
C1192      H1196   1.082       .  S
C1197      C1202   1.379       .  A
C1197      C1198   1.405       .  A
C1197      O1203   1.316       .  A
C1198      C1199   1.403       .  A
C1198      H1209   1.083       .  S
C1199      C1208   1.365       .  A
C1199      C1200   1.379       .  A
C1200      C1201   1.404       .  A
C1200      O1206   1.320       .  A
C1201      C1202   1.403       .  A
C1201      H1210   1.082       .  S
C1202      C1205   1.364       .  A
O1203      C1204   1.333       .  A
C1204      C1205   1.390       .  A
C1205      H1211   1.082       .  S
O1206      C1207   1.332       .  A
C1207      C1208   1.394       .  A
C1208      H1212   1.083       .  S
C1213      C1218   1.380       .  A
C1213      C1214   1.405       .  A
C1213      O1219   1.324       .  A
C1214      C1215   1.406       .  A
C1214      H1225   1.082       .  S
C1215      C1224   1.360       .  A
C1215      C1216   1.380       .  A
C1216      C1217   1.408       .  A
C1216      O1222   1.326       .  A
C1217      C1218   1.409       .  A
C1217      H1226   1.082       .  S
C1218      C1221   1.365       .  A
O1219      C1220   1.332       .  A
C1220      C1221   1.397       .  A
C1221      H1227   1.083       .  S
O1222      C1223   1.333       .  A
C1223      C1224   1.395       .  A
C1224      H1228   1.083       .  S
C1229      C1234   1.381       .  A
C1229      C1230   1.399       .  A
C1229      O1235   1.320       .  A
C1230      C1231   1.401       .  A
C1230      H1241   1.082       .  S
C1231      C1240   1.354       .  A
C1231      C1232   1.381       .  A
C1232      C1233   1.404       .  A
C1232      O1238   1.322       .  A
C1233      C1234   1.405       .  A
C1233      H1242   1.082       .  S
C1234      C1237   1.359       .  A
O1235      C1236   1.329       .  A
C1236      C1237   1.394       .  A
C1237      H1243   1.083       .  S
O1238      C1239   1.331       .  A
C1239      C1240   1.390       .  A
C1240      H1244   1.083       .  S
C1245      C1250   1.379       .  A
C1245      C1246   1.410       .  A
C1245      O1251   1.323   1_545  A
C1246      C1247   1.409       .  A
C1246      H1257   1.082   1_545  S
C1247      C1256   1.371       .  A
C1247      C1248   1.379       .  A
C1248      C1249   1.403       .  A
C1248      O1254   1.315       .  A
C1249      C1250   1.400       .  A
C1249      H1258   1.082       .  S
C1250      C1253   1.363       .  A
O1251      C1252   1.335   1_565  A
C1252      C1253   1.391       .  A
C1253      H1259   1.083       .  S
O1254      C1255   1.331       .  A
C1255      C1256   1.395       .  A
C1256      H1260   1.082   1_545  S
C1261      C1266   1.380       .  A
C1261      C1262   1.404       .  A
C1261      O1267   1.316       .  A
C1262      C1263   1.401       .  A
C1262      H1273   1.082       .  S
C1263      C1272   1.363       .  A
C1263      C1264   1.380       .  A
C1264      C1265   1.407       .  A
C1264      O1270   1.320   1_565  A
C1265      C1266   1.405       .  A
C1265      H1274   1.082   1_565  S
C1266      C1269   1.370       .  A
O1267      C1268   1.333       .  A
C1268      C1269   1.392       .  A
C1269      H1275   1.082       .  S
O1270      C1271   1.332   1_545  A
C1271      C1272   1.391       .  A
C1272      H1276   1.083       .  S
C1277      C1282   1.380       .  A
C1277      C1278   1.401       .  A
C1277      O1283   1.318       .  A
C1278      C1279   1.401       .  A
C1278      H1289   1.083       .  S
C1279      C1288   1.356       .  A
C1279      C1280   1.379       .  A
C1280      C1281   1.410   1_545  A
C1280      O1286   1.326       .  A
C1281      C1282   1.410   1_565  A
C1281      H1290   1.082       .  S
C1282      C1285   1.369   1_545  A
O1283      C1284   1.329       .  A
C1284      C1285   1.395   1_545  A
C1285      H1291   1.082       .  S
O1286      C1287   1.334       .  A
C1287      C1288   1.394       .  A
C1288      H1292   1.083       .  S
C1293      C1298   1.379   1_565  A
C1293      C1294   1.401       .  A
C1293      O1299   1.310       .  A
C1294      C1295   1.397       .  A
C1294      H1305   1.082       .  S
C1295      C1304   1.363       .  A
C1295      C1296   1.378   1_565  A
C1296      C1297   1.413       .  A
C1296      O1302   1.322       .  A
C1297      C1298   1.410       .  A
C1297      H1306   1.082       .  S
C1298      C1301   1.376       .  A
O1299      C1300   1.330   1_565  A
C1300      C1301   1.396       .  A
C1301      H1307   1.082       .  S
O1302      C1303   1.337       .  A
C1303      C1304   1.388   1_545  A
C1304      H1308   1.082       .  S
C1309      C1314   1.379       .  A
C1309      C1310   1.404       .  A
C1309      O1315   1.316       .  A
C1310      C1311   1.402       .  A
C1310      H1321   1.082       .  S
C1311      C1320   1.364       .  A
C1311      C1312   1.379       .  A
C1312      C1313   1.403       .  A
C1312      O1318   1.317       .  A
C1313      C1314   1.403       .  A
C1313      H1322   1.083       .  S
C1314      C1317   1.360       .  A
O1315      C1316   1.332       .  A
C1316      C1317   1.397       .  A
C1317      H1323   1.082       .  S
O1318      C1319   1.331       .  A
C1319      C1320   1.392       .  A
C1320      H1324   1.082       .  S
C1325      C1330   1.380       .  A
C1325      C1326   1.399       .  A
C1325      O1331   1.319       .  A
C1326      C1327   1.401       .  A
C1326      H1337   1.082       .  S
C1327      C1336   1.354       .  A
C1327      C1328   1.379       .  A
C1328      C1329   1.402       .  A
C1328      O1334   1.317       .  A
C1329      C1330   1.401       .  A
C1329      H1338   1.082       .  S
C1330      C1333   1.357       .  A
O1331      C1332   1.329       .  A
C1332      C1333   1.393       .  A
C1333      H1339   1.083       .  S
O1334      C1335   1.332       .  A
C1335      C1336   1.397       .  A
C1336      H1340   1.081       .  S
C1341      C1346   1.379       .  A
C1341      C1342   1.400       .  A
C1341      O1347   1.318       .  A
C1342      C1343   1.402       .  A
C1342      H1353   1.083       .  S
C1343      C1352   1.356       .  A
C1343      C1344   1.381       .  A
C1344      C1345   1.400       .  A
C1344      O1350   1.313       .  A
C1345      C1346   1.398       .  A
C1345      H1354   1.083       .  S
C1346      C1349   1.357       .  A
O1347      C1348   1.331       .  A
C1348      C1349   1.390       .  A
C1349      H1355   1.082       .  S
O1350      C1351   1.331       .  A
C1351      C1352   1.398       .  A
C1352      H1356   1.081       .  S
C1357      C1362   1.381       .  A
C1357      C1358   1.399       .  A
C1357      O1363   1.318       .  A
C1358      C1359   1.401       .  A
C1358      H1369   1.082       .  S
C1359      C1368   1.356       .  A
C1359      C1360   1.381       .  A
C1360      C1361   1.397       .  A
C1360      O1366   1.313       .  A
C1361      C1362   1.396       .  A
C1361      H1370   1.083       .  S
C1362      C1365   1.352       .  A
O1363      C1364   1.329       .  A
C1364      C1365   1.390       .  A
C1365      H1371   1.083       .  S
O1366      C1367   1.329       .  A
C1367      C1368   1.396       .  A
C1368      H1372   1.081       .  S
C1373      C1378   1.381       .  A
C1373      C1374   1.399       .  A
C1373      O1379   1.311       .  A
C1374      C1375   1.398       .  A
C1374      H1385   1.083       .  S
C1375      C1384   1.361       .  A
C1375      C1376   1.380       .  A
C1376      C1377   1.409       .  A
C1376      O1382   1.322       .  A
C1377      C1378   1.407       .  A
C1377      H1386   1.082   1_655  S
C1378      C1381   1.370       .  A
O1379      C1380   1.328       .  A
C1380      C1381   1.392       .  A
C1381      H1387   1.082   1_655  S
O1382      C1383   1.334       .  A
C1383      C1384   1.390       .  A
C1384      H1388   1.083       .  S
C1389      C1394   1.380       .  A
C1389      C1390   1.404       .  A
C1389      O1395   1.319       .  A
C1390      C1391   1.403       .  A
C1390      H1401   1.082   1_655  S
C1391      C1400   1.365       .  A
C1391      C1392   1.381       .  A
C1392      C1393   1.399       .  A
C1392      O1398   1.310       .  A
C1393      C1394   1.396       .  A
C1393      H1402   1.083       .  S
C1394      C1397   1.358       .  A
O1395      C1396   1.331       .  A
C1396      C1397   1.389       .  A
C1397      H1403   1.083       .  S
O1398      C1399   1.329       .  A
C1399      C1400   1.390       .  A
C1400      H1404   1.082       .  S
C1405      C1410   1.379       .  A
C1405      C1406   1.408       .  A
C1405      O1411   1.321       .  A
C1406      C1407   1.406       .  A
C1406      H1417   1.082   1_455  S
C1407      C1416   1.370       .  A
C1407      C1408   1.379       .  A
C1408      C1409   1.407       .  A
C1408      O1414   1.318       .  A
C1409      C1410   1.404       .  A
C1409      H1418   1.082       .  S
C1410      C1413   1.369       .  A
O1411      C1412   1.334       .  A
C1412      C1413   1.393       .  A
C1413      H1419   1.082       .  S
O1414      C1415   1.334       .  A
C1415      C1416   1.394       .  A
C1416      H1420   1.082   1_455  S
C1421      C1426   1.379   1_455  A
C1421      C1422   1.408       .  A
C1421      O1427   1.328       .  A
C1422      C1423   1.409       .  A
C1422      H1433   1.082       .  S
C1423      C1432   1.360       .  A
C1423      C1424   1.380   1_455  A
C1424      C1425   1.406       .  A
C1424      O1430   1.326       .  A
C1425      C1426   1.408       .  A
C1425      H1434   1.082       .  S
C1426      C1429   1.363       .  A
O1427      C1428   1.336       .  A
C1428      C1429   1.395   1_455  A
C1429      H1435   1.082       .  S
O1430      C1431   1.332       .  A
C1431      C1432   1.396   1_655  A
C1432      H1436   1.083       .  S
C1437      C1442   1.380   1_655  A
C1437      C1438   1.407       .  A
C1437      O1443   1.328       .  A
C1438      C1439   1.409       .  A
C1438      H1449   1.082       .  S
C1439      C1448   1.363       .  A
C1439      C1440   1.379   1_655  A
C1440      C1441   1.405       .  A
C1440      O1446   1.323       .  A
C1441      C1442   1.407       .  A
C1441      H1450   1.082       .  S
C1442      C1445   1.361       .  A
O1443      C1444   1.334   1_655  A
C1444      C1445   1.395       .  A
C1445      H1451   1.083       .  S
O1446      C1447   1.333       .  A
C1447      C1448   1.395   1_455  A
C1448      H1452   1.083       .  S
C1453      C1458   1.379       .  A
C1453      C1454   1.409       .  A
C1453      O1459   1.320       .  A
C1454      C1455   1.406       .  A
C1454      H1465   1.082       .  S
C1455      C1464   1.372       .  A
C1455      C1456   1.379       .  A
C1456      C1457   1.402       .  A
C1456      O1462   1.312       .  A
C1457      C1458   1.399       .  A
C1457      H1466   1.083       .  S
C1458      C1461   1.362       .  A
O1459      C1460   1.334       .  A
C1460      C1461   1.390       .  A
C1461      H1467   1.083       .  S
O1462      C1463   1.332       .  A
C1463      C1464   1.393       .  A
C1464      H1468   1.082       .  S
C1469      C1474   1.379       .  A
C1469      C1470   1.407       .  A
C1469      O1475   1.319       .  A
C1470      C1471   1.406       .  A
C1470      H1481   1.082       .  S
C1471      C1480   1.372       .  A
C1471      C1472   1.380       .  A
C1472      C1473   1.405       .  A
C1472      O1478   1.315       .  A
C1473      C1474   1.401       .  A
C1473      H1482   1.082       .  S
C1474      C1477   1.366       .  A
O1475      C1476   1.332       .  A
C1476      C1477   1.392       .  A
C1477      H1483   1.083       .  S
O1478      C1479   1.332       .  A
C1479      C1480   1.394       .  A
C1480      H1484   1.082       .  S
C1485      C1490   1.380       .  A
C1485      C1486   1.405       .  A
C1485      O1491   1.323       .  A
C1486      C1487   1.405       .  A
C1486      H1497   1.082       .  S
C1487      C1496   1.361       .  A
C1487      C1488   1.380       .  A
C1488      C1489   1.405       .  A
C1488      O1494   1.323       .  A
C1489      C1490   1.406       .  A
C1489      H1498   1.082       .  S
C1490      C1493   1.362       .  A
O1491      C1492   1.332       .  A
C1492      C1493   1.395       .  A
C1493      H1499   1.083       .  S
O1494      C1495   1.332       .  A
C1495      C1496   1.394       .  A
C1496      H1500   1.083       .  S
C1501      C1506   1.380       .  A
C1501      C1502   1.408       .  A
C1501      O1507   1.327       .  A
C1502      C1503   1.409       .  A
C1502      H1513   1.082       .  S
C1503      C1512   1.362       .  A
C1503      C1504   1.380       .  A
C1504      C1505   1.398       .  A
C1504      O1510   1.317       .  A
C1505      C1506   1.398       .  A
C1505      H1514   1.082       .  S
C1506      C1509   1.353       .  A
O1507      C1508   1.335       .  A
C1508      C1509   1.387       .  A
C1509      H1515   1.083       .  S
O1510      C1511   1.329       .  A
C1511      C1512   1.395       .  A
C1512      H1516   1.083       .  S
C1517      C1522   1.381       .  A
C1517      C1518   1.399       .  A
C1517      O1523   1.320       .  A
C1518      C1519   1.400       .  A
C1518      H1529   1.082       .  S
C1519      C1528   1.353       .  A
C1519      C1520   1.381       .  A
C1520      C1521   1.405       .  A
C1520      O1526   1.324       .  A
C1521      C1522   1.407       .  A
C1521      H1530   1.082       .  S
C1522      C1525   1.361       .  A
O1523      C1524   1.329       .  A
C1524      C1525   1.395       .  A
C1525      H1531   1.083       .  S
O1526      C1527   1.332       .  A
C1527      C1528   1.389       .  A
C1528      H1532   1.083       .  S
C1533      C1538   1.380       .  A
C1533      C1534   1.400       .  A
C1533      O1539   1.318       .  A
C1534      C1535   1.401       .  A
C1534      H1545   1.082       .  S
C1535      C1544   1.357       .  A
C1535      C1536   1.380       .  A
C1536      C1537   1.408       .  A
C1536      O1542   1.324       .  A
C1537      C1538   1.409       .  A
C1537      H1546   1.082       .  S
C1538      C1541   1.368       .  A
O1539      C1540   1.329       .  A
C1540      C1541   1.397       .  A
C1541      H1547   1.083       .  S
O1542      C1543   1.332       .  A
C1543      C1544   1.392       .  A
C1544      H1548   1.083       .  S
C1549      C1554   1.380       .  A
C1549      C1550   1.403       .  A
C1549      O1555   1.324       .  A
C1550      C1551   1.405       .  A
C1550      H1561   1.082       .  S
C1551      C1560   1.357       .  A
C1551      C1552   1.379       .  A
C1552      C1553   1.412       .  A
C1552      O1558   1.331       .  A
C1553      C1554   1.414       .  A
C1553      H1562   1.082       .  S
C1554      C1557   1.369       .  A
O1555      C1556   1.332       .  A
C1556      C1557   1.399       .  A
C1557      H1563   1.082       .  S
O1558      C1559   1.336       .  A
C1559      C1560   1.395       .  A
C1560      H1564   1.083       .  S
C1565      C1570   1.379       .  A
C1565      C1566   1.409       .  A
C1565      O1571   1.321       .  A
C1566      C1567   1.406       .  A
C1566      H1577   1.082       .  S
C1567      C1576   1.370       .  A
C1567      C1568   1.378       .  A
C1568      C1569   1.407       .  A
C1568      O1574   1.317       .  A
C1569      C1570   1.404       .  A
C1569      H1578   1.082       .  S
C1570      C1573   1.369       .  A
O1571      C1572   1.335       .  A
C1572      C1573   1.392       .  A
C1573      H1579   1.082       .  S
O1574      C1575   1.334       .  A
C1575      C1576   1.393       .  A
C1576      H1580   1.082       .  S
C1581      C1586   1.379       .  A
C1581      C1582   1.406       .  A
C1581      O1587   1.318       .  A
C1582      C1583   1.404       .  A
C1582      H1593   1.082       .  S
C1583      C1592   1.369       .  A
C1583      C1584   1.378       .  A
C1584      C1585   1.411       .  A
C1584      O1590   1.320       .  A
C1585      C1586   1.408       .  A
C1585      H1594   1.082       .  S
C1586      C1589   1.373       .  A
O1587      C1588   1.332       .  A
C1588      C1589   1.396       .  A
C1589      H1595   1.082       .  S
O1590      C1591   1.336       .  A
C1591      C1592   1.393       .  A
C1592      H1596   1.082       .  S
C1597      C1602   1.379       .  A
C1597      C1598   1.403       .  A
C1597      O1603   1.316       .  A
C1598      C1599   1.402       .  A
C1598      H1609   1.083       .  S
C1599      C1608   1.359       .  A
C1599      C1600   1.381       .  A
C1600      C1601   1.397       .  A
C1600      O1606   1.315       .  A
C1601      C1602   1.397       .  A
C1601      H1610   1.082       .  S
C1602      C1605   1.355       .  A
O1603      C1604   1.333       .  A
C1604      C1605   1.393       .  A
C1605      H1611   1.081       .  S
O1606      C1607   1.327       .  A
C1607      C1608   1.393       .  A
C1608      H1612   1.083       .  S
C1613      C1618   1.380       .  A
C1613      C1614   1.398       .  A
C1613      O1619   1.315       .  A
C1614      C1615   1.399       .  A
C1614      H1625   1.082       .  S
C1615      C1624   1.356       .  A
C1615      C1616   1.379       .  A
C1616      C1617   1.402       .  A
C1616      O1622   1.314       .  A
C1617      C1618   1.400       .  A
C1617      H1626   1.083       .  S
C1618      C1621   1.359       .  A
O1619      C1620   1.328       .  A
C1620      C1621   1.392       .  A
C1621      H1627   1.083       .  S
O1622      C1623   1.333       .  A
C1623      C1624   1.397       .  A
C1624      H1628   1.081       .  S
C1629      C1634   1.381       .  A
C1629      C1630   1.396       .  A
C1629      O1635   1.309       .  A
C1630      C1631   1.392       .  A
C1630      H1641   1.083       .  S
C1631      C1640   1.350       .  A
C1631      C1632   1.381       .  A
C1632      C1633   1.399       .  A
C1632      O1638   1.315       .  A
C1633      C1634   1.400       .  A
C1633      H1642   1.082       .  S
C1634      C1637   1.359       .  A
O1635      C1636   1.329       .  A
C1636      C1637   1.397       .  A
C1637      H1643   1.081       .  S
O1638      C1639   1.327       .  A
C1639      C1640   1.387       .  A
C1640      H1644   1.083       .  S
C1645      C1650   1.379       .  A
C1645      C1646   1.411       .  A
C1645      O1651   1.322       .  A
C1646      C1647   1.409       .  A
C1646      H1657   1.082       .  S
C1647      C1656   1.374       .  A
C1647      C1648   1.379       .  A
C1648      C1649   1.405       .  A
C1648      O1654   1.315       .  A
C1649      C1650   1.402       .  A
C1649      H1658   1.082       .  S
C1650      C1653   1.366       .  A
O1651      C1652   1.335       .  A
C1652      C1653   1.393       .  A
C1653      H1659   1.082       .  S
O1654      C1655   1.333       .  A
C1655      C1656   1.395       .  A
C1656      H1660   1.082       .  S
C1661      C1666   1.380       .  A
C1661      C1662   1.402       .  A
C1661      O1667   1.322       .  A
C1662      C1663   1.405       .  A
C1662      H1673   1.082       .  S
C1663      C1672   1.357       .  A
C1663      C1664   1.379       .  A
C1664      C1665   1.404       .  A
C1664      O1670   1.323       .  A
C1665      C1666   1.404       .  A
C1665      H1674   1.082   1_655  S
C1666      C1669   1.358       .  A
O1667      C1668   1.330       .  A
C1668      C1669   1.393       .  A
C1669      H1675   1.083   1_655  S
O1670      C1671   1.333       .  A
C1671      C1672   1.396       .  A
C1672      H1676   1.083       .  S
C1677      C1682   1.380       .  A
C1677      C1678   1.403       .  A
C1677      O1683   1.313       .  A
C1678      C1679   1.400       .  A
C1678      H1689   1.082       .  S
C1679      C1688   1.363       .  A
C1679      C1680   1.381       .  A
C1680      C1681   1.398       .  A
C1680      O1686   1.312       .  A
C1681      C1682   1.397       .  A
C1681      H1690   1.083       .  S
C1682      C1685   1.357       .  A
O1683      C1684   1.332       .  A
C1684      C1685   1.394       .  A
C1685      H1691   1.081       .  S
O1686      C1687   1.328       .  A
C1687      C1688   1.390       .  A
C1688      H1692   1.082       .  S
