geometry optimzed in LAMMPS
_audit_creation_date              2020-11-30 
_audit_creation_method            'lammps2cif' 
_symmetry_space_group_name_H-M    'P1' 
_symmetry_Int_Tables_number       1 
_symmetry_cell_setting            triclinic 
loop_ 
_symmetry_equiv_pos_as_xyz 
  x,y,z 
_cell_length_a                    44.38213656589777 
_cell_length_b                    44.42261152237667 
_cell_length_c                    68.32794082532192 
_cell_angle_alpha                 90.14315483964707 
_cell_angle_beta                  90.17498350076151 
_cell_angle_gamma                 90.28534630009625 
loop_ 
_atom_site_label 
_atom_site_type_symbol 
_atom_site_fract_x 
_atom_site_fract_y 
_atom_site_fract_z 
_atom_site_charge 
C1          C  0.00226346  0.62763640  0.01759250     0.02910
C2          C  0.99927836  0.64287326  0.99981867    -0.13240
C3          C  0.99864804  0.62702457  0.98217739     0.00410
C4          C  0.99972682  0.59551102  0.98226125    -0.11770
C5          C  0.00319846  0.57930688  0.99992028     0.02900
C6          C  0.00560931  0.59619481  0.01748739    -0.11190
H7          H  0.99776473  0.66722553  0.99965845     0.08490
H8          H  0.99746443  0.58424994  0.96832916     0.06020
H9          H  0.01026754  0.58547381  0.03130369     0.05870
C10         C  0.56666738  0.05541840  0.98216503     0.02910
C11         C  0.58221067  0.05378527  0.99994583    -0.13240
C12         C  0.56715276  0.05804813  0.01765333     0.00410
C13         C  0.53562645  0.06094818  0.01757121    -0.11770
C14         C  0.51875461  0.06047767  0.99993255     0.02900
C15         C  0.53530063  0.05928732  0.98224422    -0.11190
H16         H  0.60632559  0.05008442  0.99993990     0.08490
H17         H  0.52502080  0.06435638  0.03152930     0.06020
H18         H  0.52461026  0.06212225  0.96822708     0.05870
C19         C  0.93655222  0.56098524  0.51879131     0.02910
C20         C  0.92049690  0.56457009  0.50125401    -0.13240
C21         C  0.93562191  0.56902453  0.48355305     0.00410
C22         C  0.96722737  0.57042753  0.48355334    -0.11770
C23         C  0.98417702  0.56466018  0.50065968     0.02900
C24         C  0.96816188  0.55924866  0.51817487    -0.11190
H25         H  0.89611377  0.56368534  0.50136882     0.08490
H26         H  0.97814356  0.57577716  0.46989799     0.06020
H27         H  0.97986273  0.55334473  0.53149197     0.05870
C28         C  0.49804741  0.99519831  0.48145475     0.02910
C29         C  0.49882732  0.97972802  0.49919517    -0.13240
C30         C  0.49886743  0.99546921  0.51687981     0.00410
C31         C  0.49916533  0.02706061  0.51677482    -0.11770
C32         C  0.49799491  0.04363514  0.49906081     0.02900
C33         C  0.49733137  0.02680229  0.48139964    -0.11190
H34         H  0.49907386  0.95531697  0.49922817     0.08490
H35         H  0.50072081  0.03787976  0.53083314     0.06020
H36         H  0.49655021  0.03748563  0.46729446     0.05870
C37         C  0.49973769  0.12623905  0.48158990     0.02910
C38         C  0.49948391  0.09464643  0.48141227    -0.13240
C39         C  0.49792073  0.07786752  0.49905158     0.00410
C40         C  0.49653329  0.09452795  0.51677090    -0.11770
C41         C  0.49802799  0.12606848  0.51692527     0.02900
C42         C  0.49933865  0.14178328  0.49931686    -0.11190
H43         H  0.50070872  0.08399519  0.46727605     0.08490
H44         H  0.49453196  0.08380585  0.53079829     0.06020
H45         H  0.49988005  0.16619478  0.49940196     0.05870
C46         C  0.06712673  0.56281911  0.51724468     0.02910
C47         C  0.08156442  0.55808452  0.49926110    -0.13240
C48         C  0.06514085  0.55813353  0.48174103     0.00410
C49         C  0.03364273  0.55920918  0.48229015    -0.11770
C50         C  0.01814610  0.56348619  0.50009802     0.02900
C51         C  0.03557134  0.56651040  0.51735912    -0.11190
H52         H  0.10560075  0.55428084  0.49871146     0.08490
H53         H  0.02174170  0.55680015  0.46857650     0.06020
H54         H  0.02486506  0.57184813  0.53109906     0.05870
N55         N  0.69541478  0.00060383  0.83640932    -0.27510
N56         N  0.71208864  0.01556820  0.82369983    -0.35370
C57         C  0.72285516  0.99617403  0.81034207     0.00830
C58         C  0.71209165  0.96769417  0.81470979     0.06850
C59         C  0.69499567  0.97129434  0.83144781    -0.06250
H60         H  0.73699862  0.00242900  0.79812559     0.07520
H61         H  0.68337763  0.95390721  0.83956670     0.08720
Cu62       Cu  0.71752856  0.06189052  0.82433642     0.44170
Cu63       Cu  0.67402096  0.02093338  0.85976719     0.41990
Cu64       Cu  0.67595143  0.10279447  0.86135432     0.43880
N65         N  0.71370292  0.10832471  0.82493913    -0.34900
N66         N  0.69771541  0.12330341  0.83800506    -0.29150
C67         C  0.69775870  0.15268506  0.83322183    -0.05250
C68         C  0.71453311  0.15625178  0.81632247     0.06960
C69         C  0.72454297  0.12774169  0.81162319     0.00760
H70         H  0.68636338  0.17009836  0.84140656     0.08410
H71         H  0.73789275  0.12141941  0.79905784     0.07490
N72         N  0.65662286  0.07606450  0.88288528    -0.36350
N73         N  0.65581808  0.04632507  0.88216481    -0.28530
C74         C  0.64181384  0.03584863  0.89818549    -0.03770
C75         C  0.63368211  0.06009753  0.90970030     0.04840
C76         C  0.64316613  0.08527563  0.89944876     0.02940
H77         H  0.63804883  0.01225932  0.90129385     0.08040
H78         H  0.64007013  0.10860110  0.90351154     0.06870
O79         O  0.72739007  0.28739981  0.72286944    -0.73170
O80         O  0.80077477  0.30668802  0.75495849    -0.74150
O81         O  0.75650635  0.26054539  0.75573525    -0.62770
O82         O  0.77193218  0.33355435  0.72243012    -0.71180
O83         O  0.74328617  0.36058872  0.74237111    -0.70730
O84         O  0.72844346  0.28797503  0.77577215    -0.61980
O85         O  0.77315735  0.33417170  0.77504756    -0.74490
O86         O  0.69940760  0.31431781  0.74320382    -0.73270
Cu87       Cu  0.76510965  0.29606323  0.73830164     1.04560
Cu88       Cu  0.73514476  0.32523376  0.75981182     1.04330
C89         C  0.70181695  0.29793975  0.72789147     0.93030
C90         C  0.79872998  0.32341223  0.77009531     0.92170
C91         C  0.74012707  0.26279696  0.77102573     0.84320
C92         C  0.75972095  0.35852214  0.72712265     0.90590
O93         O  0.75663237  0.86178044  0.75627984    -0.73170
O94         O  0.77132406  0.78886744  0.72276399    -0.74150
O95         O  0.72690790  0.83494178  0.72378875    -0.62770
O96         O  0.80078798  0.81594259  0.75523681    -0.71180
O97         O  0.77323037  0.78893795  0.77572585    -0.70730
O98         O  0.69947015  0.80628995  0.74355098    -0.61980
O99         O  0.74409995  0.76119246  0.74317255    -0.74490
O100        O  0.72799551  0.83439268  0.77605597    -0.73270
Cu101      Cu  0.76487393  0.82634792  0.73882107     1.04560
Cu102      Cu  0.73526575  0.79674919  0.76035959     1.04330
C103        C  0.73983591  0.85963617  0.77136674     0.93030
C104        C  0.75991742  0.76350827  0.72765686     0.92170
C105        C  0.70156503  0.82349052  0.72865921     0.84320
C106        C  0.79879184  0.79962480  0.77052853     0.90590
N107        N  0.98736466  0.71973521  0.88382772    -0.27510
N108        N  0.01684047  0.72378159  0.88519082    -0.35370
C109        C  0.02686914  0.71007571  0.90146891     0.00830
C110        C  0.00270761  0.69602020  0.91056689     0.06850
C111        C  0.97802450  0.70302708  0.89901911    -0.06250
H112        H  0.05006835  0.71068955  0.90628272     0.07520
H113        H  0.95490547  0.69607248  0.90129281     0.08720
Cu114      Cu  0.04304639  0.74522696  0.86418177     0.44170
Cu115      Cu  0.96035999  0.73637663  0.86157975     0.41990
Cu116      Cu  0.00065997  0.77217091  0.82291728     0.43880
N117        N  0.06304492  0.76281597  0.83918193    -0.34900
N118        N  0.04710356  0.77291309  0.82424176    -0.29150
C119        C  0.06581019  0.78132478  0.80985212    -0.05250
C120        C  0.09507038  0.77569402  0.81574476     0.06960
C121        C  0.09251704  0.76440487  0.83458694     0.00760
H122        H  0.05847395  0.79058932  0.79602755     0.08410
H123        H  0.11065932  0.75695312  0.84398190     0.07490
N124        N  0.95443447  0.76699594  0.82283702    -0.36350
N125        N  0.93921770  0.75427245  0.83719400    -0.28530
C126        C  0.90961099  0.75513560  0.83289352    -0.03770
C127        C  0.90610627  0.76862829  0.81471984     0.04840
C128        C  0.93510620  0.77598244  0.80892982     0.02940
H129        H  0.89206832  0.74729864  0.84259013     0.08040
H130        H  0.94175375  0.78718521  0.79557088     0.06870
O131        O  0.20006122  0.81581020  0.75563225    -0.73170
O132        O  0.27336469  0.83516248  0.72364280    -0.74150
O133        O  0.22888100  0.78926043  0.72292297    -0.62770
O134        O  0.24452705  0.86190055  0.75651519    -0.71180
O135        O  0.27301240  0.83475026  0.77638112    -0.70730
O136        O  0.25615008  0.76182875  0.74327318    -0.61980
O137        O  0.30110845  0.80743118  0.74362751    -0.74490
O138        O  0.22822420  0.78937609  0.77621581    -0.73270
Cu139      Cu  0.23574719  0.82652176  0.73899034     1.04560
Cu140      Cu  0.26560346  0.79736848  0.76055089     1.04330
C141        C  0.20266762  0.79985271  0.77106843     0.93030
C142        C  0.29880122  0.82401597  0.72844237     0.92170
C143        C  0.23995153  0.76390523  0.72781730     0.84320
C144        C  0.26120382  0.85989617  0.77174995     0.90590
N145        N  0.93876424  0.37027818  0.83713348    -0.27510
N146        N  0.95415798  0.36176586  0.82157928    -0.35370
C147        C  0.93483847  0.35327417  0.80743627     0.00830
C148        C  0.90573588  0.35676022  0.81428358     0.06850
C149        C  0.90911800  0.36735413  0.83328860    -0.06250
H150        H  0.94153877  0.34487601  0.79323249     0.07520
H151        H  0.89148871  0.37172897  0.84378970     0.08720
Cu152      Cu  0.00068164  0.36040292  0.82046480     0.44170
Cu153      Cu  0.95943597  0.38498233  0.86272506     0.41990
Cu154      Cu  0.04165036  0.37601185  0.86465184     0.43880
N155        N  0.04697329  0.35667110  0.82275799    -0.34900
N156        N  0.06210701  0.36097308  0.83918960    -0.29150
C157        C  0.09151353  0.35571010  0.83590721    -0.05250
C158        C  0.09519892  0.34836408  0.81626928     0.06960
C159        C  0.06627392  0.34899009  0.80854017     0.00760
H160        H  0.10862825  0.35672767  0.84715940     0.08410
H161        H  0.05964927  0.34439744  0.79357624     0.07490
N162        N  0.01621304  0.39678232  0.88621917    -0.36350
N163        N  0.98663970  0.40023447  0.88547435    -0.28530
C164        C  0.97782922  0.41634156  0.90111517    -0.03770
C165        C  0.00297615  0.42316211  0.91234649     0.04840
C166        C  0.02692395  0.41061994  0.90233645     0.02940
H167        H  0.95482959  0.42300490  0.90393944     0.08040
H168        H  0.05058329  0.41246549  0.90600824     0.06870
O169        O  0.22920692  0.33212350  0.72243966    -0.73170
O170        O  0.24466199  0.25870681  0.75489132    -0.74150
O171        O  0.19985078  0.30393162  0.75454051    -0.62770
O172        O  0.27400446  0.28702196  0.72287864    -0.71180
O173        O  0.30081325  0.31536035  0.74331539    -0.70730
O174        O  0.22694436  0.33046409  0.77563560    -0.61980
O175        O  0.27233330  0.28586272  0.77547080    -0.74490
O176        O  0.25515362  0.35977113  0.74378698    -0.73270
Cu177      Cu  0.23600352  0.29446778  0.73797978     1.04560
Cu178      Cu  0.26481412  0.32377863  0.76027032     1.04330
C179        C  0.23962312  0.35756285  0.72807438     0.93030
C180        C  0.26094182  0.26057762  0.77028727     0.92170
C181        C  0.20149976  0.31971551  0.77015622     0.84320
C182        C  0.29909977  0.29891330  0.72796081     0.90590
N183        N  0.29881061  0.12293593  0.84021186    -0.27510
N184        N  0.28162358  0.10781968  0.82779134    -0.35370
C185        C  0.26971331  0.12704829  0.81482797     0.00830
C186        C  0.27990820  0.15584720  0.81917704     0.06850
C187        C  0.29858283  0.15225951  0.83533183    -0.06250
H188        H  0.25542967  0.12032693  0.80271068     0.07520
H189        H  0.31225023  0.16927398  0.84245561     0.08720
Cu190      Cu  0.27806109  0.06146504  0.82747600     0.44170
Cu191      Cu  0.32222262  0.10216385  0.86262938     0.41990
Cu192      Cu  0.31616688  0.01965674  0.86499437     0.43880
N193        N  0.28061654  0.01506551  0.82768684    -0.34900
N194        N  0.29434781  0.99943342  0.84146356    -0.29150
C195        C  0.29295194  0.97001436  0.83675677    -0.05250
C196        C  0.27737962  0.96702566  0.81921427     0.06960
C197        C  0.27032747  0.99616916  0.81381656     0.00760
H198        H  0.30302620  0.95218454  0.84527832     0.08410
H199        H  0.25969676  0.00338700  0.80037937     0.07490
N200        N  0.33813443  0.04627746  0.88562171    -0.36350
N201        N  0.34064507  0.07592186  0.88457735    -0.28530
C202        C  0.35663951  0.08591818  0.90002330    -0.03770
C203        C  0.36431770  0.06149360  0.91145845     0.04840
C204        C  0.35245202  0.03669282  0.90179739     0.02940
H205        H  0.36212995  0.10930904  0.90277873     0.08040
H206        H  0.35459480  0.01331706  0.90594542     0.06870
N207        N  0.20313567  0.62192716  0.66060322    -0.27510
N208        N  0.21339930  0.60644335  0.67565292    -0.35370
C209        C  0.22348498  0.62555796  0.68944800     0.00830
C210        C  0.22007814  0.65469860  0.68268813     0.06850
C211        C  0.20670208  0.65150009  0.66438837    -0.06250
H212        H  0.23154718  0.61857870  0.70366261     0.07520
H213        H  0.19961423  0.66934513  0.65468909     0.08720
Cu214      Cu  0.21256263  0.56009558  0.67717344     0.44170
Cu215      Cu  0.18266123  0.60121449  0.63670393     0.41990
Cu216      Cu  0.17455110  0.51845500  0.63945454     0.43880
N217        N  0.20972401  0.51375301  0.67681016    -0.34900
N218        N  0.19572950  0.49807755  0.66304317    -0.29150
C219        C  0.19717576  0.46862521  0.66757337    -0.05250
C220        C  0.21245296  0.46584413  0.68519430     0.06960
C221        C  0.22043408  0.49488638  0.69042832     0.00760
H222        H  0.18717495  0.45067496  0.65897494     0.08410
H223        H  0.23300820  0.50191102  0.70324649     0.07490
N224        N  0.15568073  0.54523308  0.61782897    -0.36350
N225        N  0.15930874  0.57476875  0.61656832    -0.28530
C226        C  0.14486092  0.58468293  0.60053235    -0.03770
C227        C  0.13110456  0.56038249  0.59145002     0.04840
C228        C  0.13858943  0.53570744  0.60272106     0.02940
H229        H  0.14434663  0.60792279  0.59584505     0.08040
H230        H  0.13273192  0.51242837  0.59988788     0.06870
N231        N  0.56024302  0.25670383  0.66166274    -0.27510
N232        N  0.54566344  0.27484556  0.67366593    -0.35370
C233        C  0.56489700  0.28549386  0.68723229     0.00830
C234        C  0.59295513  0.27313389  0.68388390     0.06850
C235        C  0.58929325  0.25533153  0.66734006    -0.06250
H236        H  0.55875559  0.30108990  0.69870471     0.07520
H237        H  0.60632794  0.24188945  0.66021286     0.08720
Cu238      Cu  0.49985760  0.28264120  0.67240825     0.44170
Cu239      Cu  0.53920526  0.23434059  0.63858996     0.41990
Cu240      Cu  0.45751785  0.24564327  0.63477538     0.43880
N241        N  0.45333339  0.28225120  0.67157919    -0.34900
N242        N  0.43752632  0.26818322  0.65791064    -0.29150
C243        C  0.40812598  0.26944547  0.66258467    -0.05250
C244        C  0.40532735  0.28542104  0.67993036     0.06960
C245        C  0.43451242  0.29294298  0.68526344     0.00760
H246        H  0.39021293  0.25873714  0.65430361     0.08410
H247        H  0.44173644  0.30382172  0.69867061     0.07490
N248        N  0.48292019  0.22147974  0.61480382    -0.36350
N249        N  0.51217886  0.21658320  0.61646549    -0.28530
C250        C  0.52109727  0.19923760  0.60142861    -0.03770
C251        C  0.49628544  0.19272350  0.58975162     0.04840
C252        C  0.47258565  0.20766320  0.59858383     0.02940
H253        H  0.54403508  0.19189152  0.59917874     0.08040
H254        H  0.44957906  0.20910901  0.59346636     0.06870
N255        N  0.43913774  0.86292612  0.66105662    -0.27510
N256        N  0.45448458  0.84553826  0.67311323    -0.35370
C257        C  0.43582821  0.83465105  0.68683867     0.00830
C258        C  0.40735265  0.84631959  0.68367188     0.06850
C259        C  0.41023687  0.86378472  0.66695699    -0.06250
H260        H  0.44276123  0.81949217  0.69832628     0.07520
H261        H  0.39279392  0.87683773  0.65991711     0.09680
Cu262      Cu  0.50075067  0.84063576  0.67230146     0.44170
Cu263      Cu  0.45908358  0.88546012  0.63780377     0.41990
Cu264      Cu  0.54145933  0.88900549  0.63955651     0.43880
N265        N  0.54704141  0.84593523  0.67314313    -0.34900
N266        N  0.56206589  0.86441587  0.66156645    -0.29150
C267        C  0.59133634  0.86429270  0.66677378    -0.05250
C268        C  0.59488773  0.84449866  0.68223768     0.06960
C269        C  0.56625756  0.83354046  0.68599183     0.00760
H270        H  0.60869471  0.87778227  0.65992462     0.08410
H271        H  0.55961282  0.81860150  0.69770452     0.07490
N272        N  0.51541305  0.90741767  0.61739941    -0.36350
N273        N  0.48569698  0.90555633  0.61648760    -0.28530
C274        C  0.47625025  0.91860415  0.59983869    -0.03770
C275        C  0.50118764  0.92902409  0.58967767     0.04840
C276        C  0.52557770  0.92187661  0.60145442     0.02940
H277        H  0.45289573  0.92019408  0.59539191     0.08040
H278        H  0.54903074  0.92716637  0.59889203     0.06870
N279        N  0.79729672  0.49944369  0.66091684    -0.27510
N280        N  0.78197969  0.51450879  0.67427292    -0.35370
C281        C  0.77130144  0.49501649  0.68763927     0.00830
C282        C  0.78078814  0.46645116  0.68257012     0.06850
C283        C  0.79709908  0.47003526  0.66552972    -0.06250
H284        H  0.75865437  0.50131251  0.70051358     0.07520
H285        H  0.80836775  0.45263551  0.65725569     0.08720
Cu286      Cu  0.77943063  0.56114176  0.67484530     0.44170
Cu287      Cu  0.81887565  0.51971567  0.63754780     0.41990
Cu288      Cu  0.82217607  0.60132936  0.63776210     0.43880
N289        N  0.78507491  0.60755465  0.67450051    -0.34900
N290        N  0.80092088  0.62223065  0.66119388    -0.29150
C291        C  0.80116915  0.65174080  0.66573637    -0.05250
C292        C  0.78497180  0.65579982  0.68285100     0.06960
C293        C  0.77484912  0.62730939  0.68782498     0.00760
H294        H  0.81214759  0.66892966  0.65709384     0.08410
H295        H  0.76153262  0.62127399  0.70047218     0.07490
N296        N  0.84126172  0.57462461  0.61609301    -0.36350
N297        N  0.83965861  0.54489600  0.61595093    -0.28530
C298        C  0.85409836  0.53436189  0.60009893    -0.03770
C299        C  0.86524791  0.55860773  0.58966623     0.04840
C300        C  0.85694498  0.58376694  0.60034975     0.02940
H301        H  0.85690482  0.51074014  0.59672430     0.08040
H302        H  0.86191859  0.60702575  0.59691266     0.06870
C303        C  0.43644790  0.06598914  0.98206817     0.02910
C304        C  0.46779659  0.06199094  0.98225070    -0.13240
C305        C  0.48458302  0.06245158  0.99994361     0.00410
C306        C  0.46794507  0.06377474  0.01762384    -0.11770
C307        C  0.43652160  0.06724629  0.01757766     0.02900
C308        C  0.42119869  0.06926358  0.99977450    -0.11190
H309        H  0.47828124  0.05771740  0.96835948     0.08490
H310        H  0.47855506  0.06117847  0.03168683     0.06020
H311        H  0.39698045  0.07238088  0.99973663     0.05870
C312        C  0.99919407  0.49746138  0.01775150     0.02910
C313        C  0.99926873  0.52900243  0.01761182    -0.13240
C314        C  0.00345946  0.54526975  0.00004892     0.00410
C315        C  0.00704979  0.52842414  0.98257383    -0.11770
C316        C  0.00390553  0.49691681  0.98238117     0.02900
C317        C  0.00039702  0.48164535  0.00011365    -0.11190
H318        H  0.99584443  0.54021869  0.03143719     0.08490
H319        H  0.01232878  0.53925674  0.96889575     0.06020
H320        H  0.99892914  0.45727791  0.00025585     0.05870
N321        N  0.95361603  0.77450211  0.17511249    -0.27510
N322        N  0.93801591  0.76317317  0.16029464    -0.35370
C323        C  0.90843201  0.76529300  0.16439727     0.00830
C324        C  0.90551402  0.77844225  0.18269922     0.06850
C325        C  0.93457279  0.78372733  0.18910364    -0.06250
H326        H  0.89046569  0.75703981  0.15505573     0.07520
H327        H  0.94140521  0.79341035  0.20297848     0.08720
Cu328      Cu  0.95837784  0.74364232  0.13600056     0.44170
Cu329      Cu  0.00000611  0.77648767  0.17610861     0.41990
Cu330      Cu  0.04129853  0.74423734  0.13653076     0.43880
N331        N  0.98528861  0.72441617  0.11445482    -0.34900
N332        N  0.01510292  0.72502389  0.11467585    -0.29150
C333        C  0.02546387  0.71033803  0.09888550    -0.05250
C334        C  0.00110197  0.70012440  0.08806906     0.06960
C335        C  0.97597515  0.70915162  0.09848346     0.00760
H336        H  0.04906552  0.70667258  0.09583304     0.08410
H337        H  0.95263199  0.70489265  0.09474172     0.07490
N338        N  0.06189650  0.76279667  0.16096595    -0.36350
N339        N  0.04638669  0.77479026  0.17545568    -0.28530
C340        C  0.06544741  0.78374706  0.18960631    -0.03770
C341        C  0.09441687  0.77659921  0.18393083     0.04840
C342        C  0.09140472  0.76374634  0.16553673     0.02940
H343        H  0.05859066  0.79447356  0.20309127     0.08040
H344        H  0.10921793  0.75492865  0.15642868     0.06870
O345        O  0.22818123  0.79005180  0.22268089    -0.73170
O346        O  0.30114349  0.80680332  0.25570639    -0.74150
O347        O  0.25553626  0.76144379  0.25524859    -0.62770
O348        O  0.27337107  0.83498128  0.22323672    -0.71180
O349        O  0.24538581  0.86206106  0.24343570    -0.70730
O350        O  0.22838771  0.78876172  0.27585402    -0.61980
O351        O  0.27338142  0.83390329  0.27616402    -0.74490
O352        O  0.20037624  0.81654154  0.24343789    -0.73270
Cu353      Cu  0.26557199  0.79734018  0.23853833     1.04560
Cu354      Cu  0.23594946  0.82632263  0.26042068     1.04330
C355        C  0.20277308  0.80069118  0.22790928     0.93030
C356        C  0.29872098  0.82289841  0.27113020     0.92170
C357        C  0.23897123  0.76338906  0.27047084     0.84320
C358        C  0.26171543  0.86013277  0.22811120     0.90590
O359        O  0.74657715  0.75920094  0.25509070    -0.73170
O360        O  0.72725873  0.83204969  0.22281356    -0.74150
O361        O  0.77346429  0.78841778  0.22264899    -0.62770
O362        O  0.69999443  0.80293439  0.25539422    -0.71180
O363        O  0.72665047  0.83257189  0.27520278    -0.70730
O364        O  0.80073908  0.81537846  0.24372486    -0.61980
O365        O  0.75488476  0.86017973  0.24299947    -0.74490
O366        O  0.77198594  0.78785749  0.27616204    -0.73270
Cu367      Cu  0.73585721  0.79463688  0.23828325     1.04560
Cu368      Cu  0.76455376  0.82498242  0.26021420     1.04330
C369        C  0.76207405  0.76208870  0.27078173     0.93030
C370        C  0.73813254  0.85760905  0.22784076     0.92170
C371        C  0.79872423  0.79935502  0.22821469     0.84320
C372        C  0.70167119  0.82027012  0.27032298     0.90590
N373        N  0.65774678  0.04632115  0.11735621    -0.27510
N374        N  0.65912154  0.07607516  0.11675285    -0.35370
C375        C  0.64427520  0.08564264  0.10074794     0.00830
C376        C  0.63262811  0.06077422  0.09104468     0.06850
C377        C  0.64188137  0.03625703  0.10187593    -0.06250
H378        H  0.64174319  0.10900356  0.09664276     0.07520
H379        H  0.63770360  0.01274625  0.09865515     0.08720
Cu380      Cu  0.67983489  0.10270175  0.13802020     0.44170
Cu381      Cu  0.67684999  0.01986630  0.13896720     0.41990
Cu382      Cu  0.71520714  0.06052125  0.17678046     0.43880
N383        N  0.69975310  0.12271376  0.16241731    -0.34900
N384        N  0.71286306  0.10698632  0.17642101    -0.29150
C385        C  0.72237423  0.12578398  0.19058576    -0.05250
C386        C  0.71449883  0.15482361  0.18549196     0.06960
C387        C  0.70058158  0.15208630  0.16736704     0.00760
H388        H  0.73406976  0.11868454  0.20367781     0.08410
H389        H  0.69102552  0.17002093  0.15868695     0.07490
N390        N  0.71093634  0.01415915  0.17662381    -0.36350
N391        N  0.69672364  0.99893428  0.16274194    -0.28530
C392        C  0.69678649  0.96948267  0.16734828    -0.03770
C393        C  0.71134923  0.96617700  0.18516807     0.04840
C394        C  0.72034554  0.99493877  0.19045898     0.02940
H395        H  0.68638750  0.95190140  0.15862531     0.08040
H396        H  0.73279231  0.00150611  0.20342944     0.06870
O397        O  0.75582191  0.26093291  0.24527917    -0.73170
O398        O  0.77570942  0.33515434  0.27663819    -0.74150
O399        O  0.72913575  0.29105961  0.27738563    -0.62770
O400        O  0.80238099  0.30478121  0.24453490    -0.71180
O401        O  0.77591352  0.33348858  0.22445096    -0.70730
O402        O  0.70172811  0.31707795  0.25635525    -0.61980
O403        O  0.74700937  0.36226004  0.25675637    -0.74490
O404        O  0.73032408  0.28874329  0.22404202    -0.73270
Cu405      Cu  0.76671246  0.29705958  0.26167272     1.04560
Cu406      Cu  0.73781664  0.32640058  0.23968408     1.04330
C407        C  0.74031232  0.26321803  0.22956638     0.93030
C408        C  0.76408130  0.36031638  0.27178005     0.92170
C409        C  0.70367674  0.30141258  0.27198897     0.84320
C410        C  0.80089158  0.32133568  0.22933442     0.90590
N411        N  0.33950818  0.07724143  0.11429769    -0.27510
N412        N  0.33958681  0.04746097  0.11406721    -0.35370
C413        C  0.35452850  0.03799644  0.09813069     0.00830
C414        C  0.36413978  0.06298438  0.08777242     0.06850
C415        C  0.35446224  0.08745410  0.09855734    -0.06250
H416        H  0.35884211  0.01463200  0.09469773     0.07520
H417        H  0.35816807  0.11099489  0.09527224     0.08720
Cu418      Cu  0.32095054  0.02056570  0.13574180     0.44170
Cu419      Cu  0.32040849  0.10317156  0.13618576     0.41990
Cu420      Cu  0.28936102  0.06127491  0.17628300     0.43880
N421        N  0.30273494  0.99967769  0.16017041    -0.34900
N422        N  0.29112439  0.01487187  0.17495667    -0.29150
C423        C  0.28179923  0.99545173  0.18871078    -0.05250
C424        C  0.28810599  0.96654834  0.18244776     0.06960
C425        C  0.30112893  0.97004755  0.16416307     0.00760
H426        H  0.27162761  0.00194924  0.20244792     0.08410
H427        H  0.30865768  0.95245421  0.15439251     0.07490
N428        N  0.29102517  0.10772157  0.17553873    -0.36350
N429        N  0.30216480  0.12331158  0.16078360    -0.28530
C430        C  0.30015588  0.15285468  0.16493919    -0.03770
C431        C  0.28748709  0.15593980  0.18335750     0.04840
C432        C  0.28173717  0.12681854  0.18949824     0.02940
H433        H  0.30704538  0.17063997  0.15512490     0.08040
H434        H  0.27181736  0.11996089  0.20323795     0.06870
N435        N  0.06125211  0.35897674  0.15910948    -0.27510
N436        N  0.04580298  0.34175807  0.17126675    -0.35370
C437        C  0.06435376  0.33153794  0.18529374     0.00830
C438        C  0.09286986  0.34326400  0.18211294     0.06850
C439        C  0.09015161  0.36019089  0.16516716    -0.06250
H440        H  0.05737259  0.31685503  0.19705038     0.07520
H441        H  0.10768603  0.37319105  0.15811386     0.08720
Cu442      Cu  0.99955020  0.33575697  0.17003032     0.44170
Cu443      Cu  0.04138602  0.38145697  0.13574411     0.41990
Cu444      Cu  0.95936609  0.38595953  0.13857564     0.43880
N445        N  0.95318996  0.34048032  0.17059116    -0.34900
N446        N  0.93852039  0.36002602  0.15965973    -0.29150
C447        C  0.90940200  0.36030642  0.16501232    -0.05250
C448        C  0.90537309  0.33956393  0.17992239     0.06960
C449        C  0.93377579  0.32759151  0.18309643     0.00760
H450        H  0.89291611  0.37570571  0.15915458     0.08410
H451        H  0.94016508  0.31151660  0.19420776     0.07490
N452        N  0.98478535  0.40497324  0.11651523    -0.36350
N453        N  0.01439243  0.40277529  0.11508465    -0.28530
C454        C  0.02329956  0.41661692  0.09858337    -0.03770
C455        C  0.99806882  0.42784739  0.08910748     0.04840
C456        C  0.97413772  0.42035254  0.10109981     0.02940
H457        H  0.04646376  0.41830256  0.09380395     0.08040
H458        H  0.95069180  0.42607338  0.09907710     0.06870
O459        O  0.27011566  0.28809943  0.27709396    -0.73170
O460        O  0.19755059  0.30552369  0.24370806    -0.74150
O461        O  0.24231710  0.26008457  0.24412991    -0.62770
O462        O  0.22542642  0.33343577  0.27656086    -0.71180
O463        O  0.25339305  0.36065005  0.25643241    -0.70730
O464        O  0.27077354  0.28730446  0.22427530    -0.61980
O465        O  0.22591772  0.33236396  0.22351144    -0.74490
O466        O  0.29821581  0.31548648  0.25722449    -0.73270
Cu467      Cu  0.23286537  0.29581854  0.26105039     1.04560
Cu468      Cu  0.26306003  0.32490211  0.23968243     1.04330
C469        C  0.29574627  0.29915697  0.27254106     0.93030
C470        C  0.20027811  0.32147483  0.22826007     0.92170
C471        C  0.25901631  0.26204648  0.22899146     0.84320
C472        C  0.23674068  0.35875719  0.27161667     0.90590
N473        N  0.45323878  0.26686033  0.32321643    -0.27510
N474        N  0.43821595  0.26186419  0.33957198    -0.35370
C475        C  0.40874612  0.26713619  0.33622022     0.00830
C476        C  0.40524650  0.27625820  0.31690176     0.06850
C477        C  0.43394966  0.27522883  0.30911920    -0.06250
H478        H  0.39118074  0.26461075  0.34704423     0.07520
H479        H  0.44049714  0.27973589  0.29418351     0.08720
Cu480      Cu  0.45913032  0.24716608  0.36525273     0.44170
Cu481      Cu  0.49944206  0.26428879  0.32039581     0.41990
Cu482      Cu  0.54164734  0.24304254  0.36202614     0.43880
N483        N  0.48690235  0.22760367  0.38640242    -0.34900
N484        N  0.51634305  0.22481759  0.38449065    -0.29150
C485        C  0.52705601  0.20783346  0.39913446    -0.05250
C486        C  0.50352140  0.20001358  0.41153191     0.06960
C487        C  0.47834265  0.21306929  0.40273330     0.00760
H488        H  0.55015861  0.20071436  0.39969766     0.08410
H489        H  0.45518743  0.21161951  0.40749607     0.07490
N490        N  0.56157218  0.26086918  0.33728735    -0.36350
N491        N  0.54578631  0.26781968  0.32156532    -0.28530
C492        C  0.56451585  0.27787825  0.30761044    -0.03770
C493        C  0.59361799  0.27777460  0.31500368     0.04840
C494        C  0.59087214  0.26649367  0.33383254     0.02940
H495        H  0.55740132  0.28399957  0.29301645     0.08040
H496        H  0.60885987  0.26244170  0.34420415     0.06870
N497        N  0.19478602  0.62405089  0.33767218    -0.27510
N498        N  0.20954404  0.60890583  0.32412229    -0.35370
C499        C  0.22118881  0.62826984  0.31111692     0.00830
C500        C  0.21353090  0.65722016  0.31663737     0.06850
C501        C  0.19652233  0.65364389  0.33352040    -0.06250
H502        H  0.23386217  0.62164184  0.29832373     0.07520
H503        H  0.18516760  0.67101528  0.34174487     0.08720
Cu504      Cu  0.21174932  0.56258233  0.32289291     0.44170
Cu505      Cu  0.17237579  0.60285810  0.36057362     0.41990
Cu506      Cu  0.17962312  0.52031741  0.36212193     0.43880
N507        N  0.21158686  0.51618213  0.32371429    -0.34900
N508        N  0.20046165  0.50038898  0.33836634    -0.29150
C509        C  0.20344414  0.47091193  0.33431054    -0.05250
C510        C  0.21732030  0.46805089  0.31623964     0.06960
C511        C  0.22169588  0.49731258  0.30987542     0.00760
H512        H  0.19561268  0.45291330  0.34367295     0.08410
H513        H  0.23044905  0.50454583  0.29590338     0.07490
N514        N  0.15604476  0.54565173  0.38236189    -0.36350
N515        N  0.15296992  0.57523718  0.38169371    -0.28530
C516        C  0.13589628  0.58402818  0.39687235    -0.03770
C517        C  0.12758469  0.55879219  0.40751851     0.04840
C518        C  0.14113014  0.53493804  0.39797333     0.02940
H519        H  0.13007345  0.60717088  0.39997498     0.08040
H520        H  0.14096210  0.51154033  0.40229020     0.06870
N521        N  0.80369202  0.49996914  0.33942269    -0.27510
N522        N  0.78724079  0.51468601  0.32646584    -0.35370
C523        C  0.77520993  0.49495414  0.31368182     0.00830
C524        C  0.78461242  0.46642925  0.31875866     0.06850
C525        C  0.80290976  0.47039697  0.33501892    -0.06250
H526        H  0.76165192  0.50105896  0.30113160     0.07520
H527        H  0.81496949  0.45313696  0.34292359     0.08720
Cu528      Cu  0.78442353  0.56110063  0.32533236     0.44170
Cu529      Cu  0.82641144  0.52140960  0.36224306     0.41990
Cu530      Cu  0.82223646  0.60388097  0.36279804     0.43880
N531        N  0.78856820  0.60748267  0.32473475    -0.34900
N532        N  0.80228839  0.62341911  0.33850034    -0.29150
C533        C  0.80210021  0.65265290  0.33334861    -0.05250
C534        C  0.78801409  0.65506696  0.31530918     0.06960
C535        C  0.77943289  0.62602262  0.31042606     0.00760
H536        H  0.81213943  0.67069164  0.34184991     0.08410
H537        H  0.76744306  0.61881346  0.29741570     0.07490
N538        N  0.84326186  0.57843421  0.38421725    -0.36350
N539        N  0.84513876  0.54871884  0.38392931    -0.28530
C540        C  0.86084361  0.53967574  0.39970693    -0.03770
C541        C  0.86954426  0.56489583  0.41031746     0.04840
C542        C  0.85767906  0.58900908  0.40016719     0.02940
H543        H  0.86523981  0.51639961  0.40328169     0.08040
H544        H  0.85977455  0.61259991  0.40393326     0.06870
N545        N  0.56179139  0.86591537  0.33557294    -0.27510
N546        N  0.54661235  0.84892220  0.32303765    -0.35370
C547        C  0.56570785  0.83765965  0.30971218     0.00830
C548        C  0.59427949  0.84839977  0.31388013     0.06850
C549        C  0.59105218  0.86608607  0.33046553    -0.06250
H550        H  0.55916416  0.82321579  0.29763836     0.07520
H551        H  0.60866477  0.87793627  0.33835025     0.08720
Cu552      Cu  0.50045964  0.84347945  0.32382773     0.44170
Cu553      Cu  0.54149034  0.88745052  0.35905705     0.41990
Cu554      Cu  0.45965742  0.87763194  0.36347568     0.43880
N555        N  0.45409525  0.84580302  0.32485455    -0.34900
N556        N  0.43882216  0.85813015  0.33935597    -0.29150
C557        C  0.40929305  0.85775116  0.33477230    -0.05250
C558        C  0.40608831  0.84505212  0.31635939     0.06960
C559        C  0.43487589  0.83744008  0.31063560     0.00760
H560        H  0.39165397  0.86710939  0.34379405     0.08410
H561        H  0.44149284  0.82709264  0.29696977     0.07490
N562        N  0.48653959  0.89951644  0.38396704    -0.36350
N563        N  0.51591623  0.90373046  0.38214544    -0.28530
C564        C  0.52602027  0.91975351  0.39756472    -0.03770
C565        C  0.50196410  0.92555742  0.40987012     0.04840
C566        C  0.47727074  0.91260876  0.40063147     0.02940
H567        H  0.54908184  0.92724895  0.39932472     0.08040
H568        H  0.45415075  0.91280836  0.40560431     0.06870
C569        C  0.34908375  0.31055352  0.28123099    -0.09380
C570        C  0.32291620  0.29351117  0.28490074     0.06820
C571        C  0.32377695  0.27195015  0.30017375    -0.03150
C572        C  0.35058510  0.26725642  0.31062918    -0.07600
C573        C  0.37688243  0.28363489  0.30640341     0.05930
C574        C  0.37564375  0.30610911  0.29184697    -0.02620
Br575      Br  0.40841504  0.33330175  0.28656659    -0.02320
H576        H  0.34893710  0.32788113  0.27010700     0.09840
H577        H  0.35103212  0.25010173  0.32186463     0.07860
Br578      Br  0.28995655  0.24732107  0.30751998    -0.02740
C579        C  0.25209864  0.41001013  0.28223032    -0.09380
C580        C  0.23133646  0.38612628  0.28356900     0.06820
C581        C  0.20645098  0.38916726  0.29630468    -0.03150
C582        C  0.20266946  0.41584121  0.30694418    -0.07600
C583        C  0.22319602  0.43985745  0.30529711     0.05930
C584        C  0.24847703  0.43647814  0.29301525    -0.02620
Br585      Br  0.28031265  0.46580051  0.29130418    -0.02320
H586        H  0.27176041  0.40792836  0.27297506     0.09840
H587        H  0.18308876  0.41803555  0.31625344     0.07860
Br588      Br  0.17584972  0.35879105  0.29935521    -0.02740
C589        C  0.14808634  0.33446032  0.18475305    -0.09380
C590        C  0.12033543  0.33874458  0.19416119     0.06820
C591        C  0.11946621  0.33829489  0.21483412    -0.03150
C592        C  0.14570165  0.33241632  0.22551958    -0.07600
C593        C  0.17333672  0.32767040  0.21612053     0.05930
C594        C  0.17443636  0.32894020  0.19548580    -0.02620
Br595      Br  0.21064712  0.32127075  0.18103061    -0.02320
H596        H  0.14917955  0.33468575  0.16891723     0.09840
H597        H  0.14461717  0.33222501  0.24136180     0.07860
Br598      Br  0.08403767  0.34805468  0.22957533    -0.02740
C599        C  0.29208721  0.23425521  0.20595537    -0.09380
C600        C  0.26536310  0.23501839  0.21694187     0.06820
C601        C  0.24573092  0.20988466  0.21620948    -0.03150
C602        C  0.25339289  0.18471704  0.20500278    -0.07600
C603        C  0.28026591  0.18382826  0.19424436     0.05930
C604        C  0.29976250  0.20901104  0.19478828    -0.02620
Br605      Br  0.33836248  0.20965290  0.18218010    -0.02320
H606        H  0.30762529  0.25313186  0.20645769     0.09840
H607        H  0.23800311  0.16571572  0.20456816     0.07860
Br608      Br  0.20746836  0.20855671  0.22927944    -0.02740
C609        C  0.82393430  0.33204328  0.19696743    -0.09380
C610        C  0.82792494  0.32594388  0.21698156     0.06820
C611        C  0.85757653  0.32361743  0.22442706    -0.03150
C612        C  0.88213710  0.32824005  0.21205673    -0.07600
C613        C  0.87818690  0.33450681  0.19208768     0.05930
C614        C  0.84859604  0.33580757  0.18447576    -0.02620
Br615      Br  0.83997886  0.33978724  0.15705559    -0.02320
H616        H  0.80142579  0.33297341  0.19081892     0.09840
H617        H  0.90458723  0.32721192  0.21825772     0.07860
Br618      Br  0.86681915  0.31493827  0.25130393    -0.02740
C619        C  0.74518844  0.40265467  0.29190552    -0.09380
C620        C  0.76976274  0.38724349  0.28389109     0.06820
C621        C  0.79919899  0.39766524  0.28778351    -0.03150
C622        C  0.80368640  0.42298111  0.29969280    -0.07600
C623        C  0.77911298  0.43848896  0.30760327     0.05930
C624        C  0.74965993  0.42805693  0.30374346    -0.02620
Br625      Br  0.71499507  0.44681412  0.31511075    -0.02320
H626        H  0.72245674  0.39464512  0.28916379     0.09840
H627        H  0.82639525  0.43117285  0.30227119     0.07860
Br628      Br  0.83374293  0.37972595  0.27585568    -0.02740
C629        C  0.65075507  0.31368277  0.28067979    -0.09380
C630        C  0.67617903  0.29551587  0.28378080     0.06820
C631        C  0.67435062  0.27227090  0.29789559    -0.03150
C632        C  0.64743680  0.26741132  0.30803539    -0.07600
C633        C  0.62190290  0.28512139  0.30453838     0.05930
C634        C  0.62395761  0.30890646  0.29094364    -0.02620
Br635      Br  0.59203624  0.33718096  0.28661533    -0.02320
H636        H  0.65174460  0.33209301  0.27033114     0.09840
H637        H  0.64627688  0.24904752  0.31841108     0.07860
Br638      Br  0.70675701  0.24512454  0.30370813    -0.02740
C639        C  0.72310186  0.21020710  0.22770695    -0.09380
C640        C  0.73344556  0.23596928  0.21797212     0.06820
C641        C  0.73675162  0.23517235  0.19746137    -0.03150
C642        C  0.73001578  0.20869488  0.18712129    -0.07600
C643        C  0.72000070  0.18273614  0.19689044     0.05930
C644        C  0.71597872  0.18388774  0.21738809    -0.02620
Br645      Br  0.69842763  0.15142364  0.23203405    -0.02320
H646        H  0.71983116  0.21079952  0.24341573     0.09840
H647        H  0.73332091  0.20817850  0.17142180     0.07860
Br648      Br  0.75239908  0.26882056  0.18304915    -0.02740
C649        C  0.71999235  0.91003023  0.22654789    -0.09380
C650        C  0.73062145  0.88470510  0.21649624     0.06820
C651        C  0.73363337  0.88584268  0.19599047    -0.03150
C652        C  0.72667418  0.91239963  0.18596781    -0.07600
C653        C  0.71664050  0.93800133  0.19609215     0.05930
C654        C  0.71258532  0.93637823  0.21654408    -0.02620
Br655      Br  0.69473145  0.96831681  0.23145974    -0.02320
H656        H  0.71682344  0.90908274  0.24225744     0.09840
H657        H  0.72987251  0.91329885  0.17026730     0.07860
Br658      Br  0.74910900  0.85257510  0.18120897    -0.02740
C659        C  0.66819055  0.85693412  0.28662883    -0.09380
C660        C  0.67444323  0.82689760  0.28179116     0.06820
C661        C  0.65439787  0.80403720  0.28775418    -0.03150
C662        C  0.62842263  0.81154088  0.29820180    -0.07600
C663        C  0.62211719  0.84160006  0.30300896     0.05930
C664        C  0.64215756  0.86446393  0.29699049    -0.02620
Br665      Br  0.63388840  0.90641565  0.30093205    -0.02320
H666        H  0.68322554  0.87472992  0.28183975     0.09840
H667        H  0.61327238  0.79375791  0.30284532     0.07860
Br668      Br  0.66238338  0.76218991  0.28311741    -0.02740
C669        C  0.77147785  0.70836065  0.31341282    -0.09380
C670        C  0.78270048  0.68274473  0.30387320     0.06820
C671        C  0.78790703  0.68386958  0.28351901    -0.03150
C672        C  0.78072257  0.70984270  0.27302365    -0.07600
C673        C  0.76907835  0.73523639  0.28250654     0.05930
C674        C  0.76461098  0.73448393  0.30290832    -0.02620
Br675      Br  0.74714071  0.76763331  0.31684609    -0.02320
H676        H  0.76727357  0.70778422  0.32901845     0.09840
H677        H  0.78487468  0.71045856  0.25740742     0.07860
Br678      Br  0.80698076  0.65173137  0.26946563    -0.02740
C679        C  0.29506735  0.88925448  0.20586482    -0.09380
C680        C  0.26761722  0.88710563  0.21598362     0.06820
C681        C  0.24665365  0.91078154  0.21426658    -0.03150
C682        C  0.25378961  0.93612870  0.20308310    -0.07600
C683        C  0.28140088  0.93846899  0.19323014     0.05930
C684        C  0.30216834  0.91462728  0.19465386    -0.02620
Br685      Br  0.34157602  0.91628099  0.18319352    -0.02320
H686        H  0.31153093  0.87142681  0.20710651     0.09840
H687        H  0.23745746  0.95409319  0.20193503     0.07860
Br688      Br  0.20725029  0.90945265  0.22581195    -0.02740
C689        C  0.35323648  0.82699695  0.31373835    -0.09380
C690        C  0.37813352  0.84100490  0.30494384     0.06820
C691        C  0.37623861  0.84992858  0.28517469    -0.03150
C692        C  0.35018909  0.84362568  0.27436753    -0.07600
C693        C  0.32557597  0.82913800  0.28306386     0.05930
C694        C  0.32705410  0.82096246  0.30293361    -0.02620
Br695      Br  0.29479376  0.79965228  0.31549411    -0.02320
H696        H  0.35448330  0.81995545  0.32888837     0.09840
H697        H  0.34892297  0.85052343  0.25918446     0.07860
Br698      Br  0.40750393  0.87266750  0.27255268    -0.02740
C699        C  0.23180890  0.73832879  0.30259255    -0.09380
C700        C  0.23209764  0.73623335  0.28208983     0.06820
C701        C  0.22572936  0.70828235  0.27316496    -0.03150
C702        C  0.21956615  0.68313504  0.28474811    -0.07600
C703        C  0.21966163  0.68501100  0.30529230     0.05930
C704        C  0.22610358  0.71303353  0.31422357    -0.02620
Br705      Br  0.23015645  0.71799848  0.34201512    -0.02320
H706        H  0.23686182  0.75963356  0.30964271     0.09840
H707        H  0.21424692  0.66200040  0.27756275     0.07860
Br708      Br  0.22315541  0.70332981  0.24527243    -0.02740
C709        C  0.15046145  0.78213270  0.22578714    -0.09380
C710        C  0.17569016  0.79407417  0.21626354     0.06820
C711        C  0.17449674  0.79933590  0.19596659    -0.03150
C712        C  0.14796363  0.79301819  0.18558574    -0.07600
C713        C  0.12246445  0.78149592  0.19518111     0.05930
C714        C  0.12411634  0.77542123  0.21542984    -0.02620
Br715      Br  0.09231987  0.75571877  0.22955319    -0.02320
H716        H  0.15149779  0.77738546  0.24132637     0.09840
H717        H  0.14700578  0.79783156  0.17006097     0.07860
Br718      Br  0.20767104  0.81705486  0.18210008    -0.02740
C719        C  0.87534668  0.77138038  0.21280950    -0.09380
C720        C  0.87771135  0.78356203  0.19393541     0.06820
C721        C  0.85388361  0.80094312  0.18642545    -0.03150
C722        C  0.82806818  0.80558166  0.19772695    -0.07600
C723        C  0.82581343  0.79345611  0.21658532     0.05930
C724        C  0.84956491  0.77608263  0.22410350    -0.02620
Br725      Br  0.84709399  0.75723307  0.24929812    -0.02320
H726        H  0.89349509  0.75788003  0.21869424     0.09840
H727        H  0.80998114  0.81925768  0.19195916     0.07860
Br728      Br  0.85648781  0.82077636  0.16157769    -0.02740
C729        C  0.97468790  0.46036217  0.03981669    -0.09380
C730        C  0.99830786  0.48070503  0.03638605     0.06820
C731        C  0.02189031  0.48316143  0.05013667    -0.03150
C732        C  0.02120467  0.46585797  0.06717444    -0.07600
C733        C  0.99742901  0.44566289  0.07080873     0.05930
C734        C  0.97409572  0.44276064  0.05675986    -0.02620
Br735      Br  0.94230811  0.41343844  0.05864587    -0.02320
H736        H  0.95688305  0.45776775  0.02904641     0.09840
H737        H  0.03947975  0.46818320  0.07761924     0.07860
Br738      Br  0.05661490  0.50816486  0.04571729    -0.02740
C739        C  0.40671403  0.08419502  0.06861583    -0.09380
C740        C  0.38260998  0.06366270  0.06982754     0.06820
C741        C  0.37641951  0.04459952  0.05377937    -0.03150
C742        C  0.39464477  0.04584865  0.03718505    -0.07600
C743        C  0.41888710  0.06621982  0.03597076     0.05930
C744        C  0.42479155  0.08566261  0.05188703    -0.02620
Br745      Br  0.45582411  0.11590029  0.05116739    -0.02320
H746        H  0.41151073  0.09922990  0.08075080     0.09840
H747        H  0.38957793  0.03102291  0.02497969     0.07860
Br748      Br  0.34193017  0.01835477  0.05278333    -0.02740
C749        C  0.40833671  0.08065601  0.93024786    -0.09380
C750        C  0.38272490  0.06200708  0.92948794     0.06820
C751        C  0.37494266  0.04488680  0.94606894    -0.03150
C752        C  0.39317468  0.04603187  0.96274283    -0.07600
C753        C  0.41888411  0.06462588  0.96355439     0.05930
C754        C  0.42631566  0.08223202  0.94707157    -0.02620
Br755      Br  0.45927270  0.11042164  0.94699178    -0.02320
H756        H  0.41433090  0.09425241  0.91769374     0.09840
H757        H  0.38691302  0.03260670  0.97532291     0.07860
Br758      Br  0.33829872  0.02185870  0.94766744    -0.02740
C759        C  0.27148371  0.17961149  0.78683521    -0.09380
C760        C  0.27504525  0.18317815  0.80714362     0.06820
C761        C  0.27364606  0.21247197  0.81517910    -0.03150
C762        C  0.26969267  0.23727188  0.80283686    -0.07600
C763        C  0.26608685  0.23360276  0.78252684     0.05930
C764        C  0.26675065  0.20424772  0.77458862    -0.02620
Br765      Br  0.26247682  0.19579824  0.74715823    -0.02320
H766        H  0.27269518  0.15743670  0.78028118     0.09840
H767        H  0.26845362  0.25954867  0.80927095     0.07860
Br768      Br  0.27409334  0.22028090  0.84282285    -0.02740
C769        C  0.22934105  0.41254926  0.68619109    -0.09380
C770        C  0.21868507  0.43797726  0.69622351     0.06820
C771        C  0.21465006  0.43643874  0.71668724    -0.03150
C772        C  0.22211609  0.41016894  0.72673842    -0.07600
C773        C  0.23292047  0.38487710  0.71675113     0.05930
C774        C  0.23652139  0.38611433  0.69628496    -0.02620
Br775      Br  0.25307969  0.35314929  0.68169462    -0.02320
H776        H  0.23272412  0.41346702  0.67050739     0.09840
H777        H  0.21869329  0.40920330  0.74242362     0.07860
Br778      Br  0.19663429  0.46829441  0.73160017    -0.02740
C779        C  0.34615255  0.31908443  0.71342784    -0.09380
C780        C  0.32616178  0.29474325  0.71566357     0.06820
C781        C  0.33212846  0.26757879  0.70565713    -0.03150
C782        C  0.35771082  0.26522886  0.69383852    -0.07600
C783        C  0.37778154  0.28950900  0.69175163     0.05930
C784        C  0.37158936  0.31679552  0.70149524    -0.02620
Br785      Br  0.39559317  0.35241552  0.69790892    -0.02320
H786        H  0.34156235  0.34033109  0.72062234     0.09840
H787        H  0.36232257  0.24402240  0.68660492     0.07860
Br788      Br  0.30748351  0.23227637  0.70841225    -0.02740
C789        C  0.98589668  0.46789387  0.93113015    -0.09380
C790        C  0.00411554  0.44218000  0.93015307     0.06820
C791        C  0.02256373  0.43499133  0.94630379    -0.03150
C792        C  0.02299342  0.45375513  0.96275331    -0.07600
C793        C  0.00470756  0.47944474  0.96380965     0.05930
C794        C  0.98586460  0.48636880  0.94775165    -0.02620
Br795      Br  0.95776984  0.51914190  0.94811265    -0.02320
H796        H  0.97134334  0.47354657  0.91893825     0.09840
H797        H  0.03722257  0.44779669  0.97504553     0.07860
Br798      Br  0.04525330  0.39837062  0.94777663    -0.02740
C799        C  0.12061249  0.32063887  0.78942076    -0.09380
C800        C  0.12311609  0.34052483  0.80537699     0.06820
C801        C  0.15168845  0.35313954  0.80967508    -0.03150
C802        C  0.17663380  0.34556000  0.79820683    -0.07600
C803        C  0.17406911  0.32596625  0.78204605     0.05930
C804        C  0.14537402  0.31348042  0.77772034    -0.02620
Br805      Br  0.13734231  0.28677229  0.75611569    -0.02320
H806        H  0.09903931  0.31049250  0.78587280     0.09840
H807        H  0.19816395  0.35580149  0.80177210     0.07860
Br808      Br  0.15843153  0.38287152  0.82967403    -0.02740
C809        C  0.24306896  0.90852014  0.78496127    -0.09380
C810        C  0.26591567  0.88679914  0.78427258     0.06820
C811        C  0.29214362  0.89125886  0.79573021    -0.03150
C812        C  0.29510595  0.91723596  0.80724419    -0.07600
C813        C  0.27241997  0.93916297  0.80764973     0.05930
C814        C  0.24591056  0.93429153  0.79659149    -0.02620
Br815      Br  0.21165737  0.96048747  0.79776073    -0.02320
H816        H  0.22245227  0.90515229  0.77668953     0.09840
H817        H  0.31567332  0.92065527  0.81554948     0.07860
Br818      Br  0.32558542  0.86395549  0.79551693    -0.02740
C819        C  0.35387778  0.83274535  0.72633291    -0.09380
C820        C  0.32602152  0.83048906  0.71667125     0.06820
C821        C  0.32506893  0.83421932  0.69615656    -0.03150
C822        C  0.35175712  0.83954959  0.68580866    -0.07600
C823        C  0.37971618  0.84139283  0.69545610     0.05930
C824        C  0.38046172  0.83853908  0.71606396    -0.02620
Br825      Br  0.41614950  0.84488059  0.73153717    -0.02320
H826        H  0.35492002  0.83066747  0.74212028     0.09840
H827        H  0.35067487  0.84166095  0.67003269     0.07860
Br828      Br  0.28853373  0.83047060  0.68118605    -0.02740
C829        C  0.25478088  0.71253531  0.71734233    -0.09380
C830        C  0.23466633  0.73670362  0.71553672     0.06820
C831        C  0.21046531  0.73404652  0.70207532    -0.03150
C832        C  0.20657531  0.70741110  0.69132096    -0.07600
C833        C  0.22632760  0.68304733  0.69353270     0.05930
C834        C  0.25108274  0.68613038  0.70643105    -0.02620
Br835      Br  0.28215629  0.65641696  0.70891081    -0.02320
H836        H  0.27397836  0.71430253  0.72711629     0.09840
H837        H  0.18745179  0.70550188  0.68150212     0.07860
Br838      Br  0.18088473  0.76490725  0.69810305    -0.02740
C839        C  0.14849222  0.79269644  0.81363742    -0.09380
C840        C  0.12294067  0.78052977  0.80428400     0.06820
C841        C  0.12440625  0.77381410  0.78406926    -0.03150
C842        C  0.15049631  0.78061740  0.77353483    -0.07600
C843        C  0.17575672  0.79316062  0.78283700     0.05930
C844        C  0.17479249  0.79899818  0.80309573    -0.02620
Br845      Br  0.20800582  0.81745787  0.81670350    -0.02320
H846        H  0.14776915  0.79801389  0.82910999     0.09840
H847        H  0.15133471  0.77542291  0.75803852     0.07860
Br848      Br  0.09284279  0.75299478  0.77020765    -0.02740
C849        C  0.82648766  0.76604314  0.79342271    -0.09380
C850        C  0.82618600  0.79246162  0.78212113     0.06820
C851        C  0.85231769  0.81080400  0.78188538    -0.03150
C852        C  0.87752724  0.80269704  0.79290930    -0.07600
C853        C  0.87796450  0.77619198  0.80404948     0.05930
C854        C  0.85208639  0.75755143  0.80406654    -0.02620
Br855      Br  0.85084845  0.71890529  0.81655271    -0.02320
H856        H  0.80699700  0.75126230  0.79347093     0.09840
H857        H  0.89703714  0.81743502  0.79274743     0.07860
Br858      Br  0.85564794  0.84754786  0.76727495    -0.02740
C859        C  0.79443417  0.73224189  0.70763044    -0.09380
C860        C  0.76559138  0.73656450  0.71548878     0.06820
C861        C  0.74308935  0.71464775  0.71199465    -0.03150
C862        C  0.74991019  0.68876685  0.70120488    -0.07600
C863        C  0.77888261  0.68415942  0.69358600     0.05930
C864        C  0.80132971  0.70625254  0.69692993    -0.02620
Br865      Br  0.84246560  0.70115878  0.68903790    -0.02320
H866        H  0.81204303  0.74870319  0.71041135     0.09840
H867        H  0.73232515  0.67221939  0.69860081     0.07860
Br868      Br  0.70223797  0.71951546  0.72060666    -0.02740
C869        C  0.64125195  0.86301105  0.69895331    -0.09380
C870        C  0.62263680  0.83866442  0.69360403     0.06820
C871        C  0.63048758  0.80939504  0.69969392    -0.03150
C872        C  0.65607452  0.80508893  0.71130693    -0.07600
C873        C  0.67454385  0.82941839  0.71673403     0.05930
C874        C  0.66698375  0.85863421  0.71048179    -0.02620
Br875      Br  0.68966259  0.89349282  0.71848218    -0.02320
H876        H  0.63533623  0.88565401  0.69457682     0.09840
H877        H  0.66197546  0.78247424  0.71576451     0.07860
Br878      Br  0.60865681  0.77414491  0.69144012    -0.02740
C879        C  0.82561067  0.35645941  0.79402001    -0.09380
C880        C  0.82608013  0.33093258  0.78178930     0.06820
C881        C  0.85291403  0.31387976  0.78077023    -0.03150
C882        C  0.87813090  0.32261978  0.79171728    -0.07600
C883        C  0.87770970  0.34825927  0.80373616     0.05930
C884        C  0.85106597  0.36537274  0.80476562    -0.02620
Br885      Br  0.84859432  0.40260299  0.81897034    -0.02320
H886        H  0.80556747  0.37022099  0.79480765     0.09840
H887        H  0.89832685  0.30908938  0.79084097     0.07860
Br888      Br  0.85731320  0.27808892  0.76519659    -0.02740
C889        C  0.74617970  0.42868218  0.69707601    -0.09380
C890        C  0.77578076  0.43840899  0.69358959     0.06820
C891        C  0.80005499  0.42132783  0.70081497    -0.03150
C892        C  0.79442742  0.39490129  0.71132330    -0.07600
C893        C  0.76482430  0.38536548  0.71498525     0.05930
C894        C  0.74056450  0.40224329  0.70757427    -0.02620
Br895      Br  0.69954014  0.38910977  0.71044237    -0.02320
H896        H  0.72739142  0.44149820  0.69139288     0.09840
H897        H  0.81320749  0.38222772  0.71715713     0.07860
Br898      Br  0.84112600  0.43433672  0.69808574    -0.02740
C899        C  0.64734044  0.28602639  0.72617131    -0.09380
C900        C  0.67455694  0.29084345  0.71625808     0.06820
C901        C  0.67490241  0.28892600  0.69563105    -0.03150
C902        C  0.64820336  0.28258358  0.68540318    -0.07600
C903        C  0.62088184  0.27824406  0.69533991     0.05930
C904        C  0.62075502  0.27946662  0.71599394    -0.02620
Br905      Br  0.58580415  0.27009400  0.73137279    -0.02320
H906        H  0.64684439  0.28679157  0.74202102     0.09840
H907        H  0.64864946  0.28184766  0.66955721     0.07860
Br908      Br  0.71045649  0.29691458  0.68052141    -0.02740
C909        C  0.70427475  0.22952114  0.78858831    -0.09380
C910        C  0.73406499  0.23602303  0.78314200     0.06820
C911        C  0.75730370  0.21660181  0.78914584    -0.03150
C912        C  0.75043887  0.19087396  0.80004328    -0.07600
C913        C  0.72063763  0.18418025  0.80532608     0.05930
C914        C  0.69737377  0.20372286  0.79945128    -0.02620
Br915      Br  0.65565749  0.19497867  0.80425765    -0.02320
H916        H  0.68617077  0.24411184  0.78386581     0.09840
H917        H  0.76853051  0.17615011  0.80460175     0.07860
Br918      Br  0.79890138  0.22506644  0.78394202    -0.02740
C919        C  0.74851096  0.93384381  0.79848141    -0.09380
C920        C  0.71869648  0.93952721  0.80406545     0.06820
C921        C  0.69599315  0.91848412  0.79910557    -0.03150
C922        C  0.70350272  0.89222517  0.78889185    -0.07600
C923        C  0.73331005  0.88670779  0.78315232     0.05930
C924        C  0.75596177  0.90771759  0.78818006    -0.02620
Br925      Br  0.79764741  0.90122851  0.78239514    -0.02320
H926        H  0.76620868  0.94967866  0.80235960     0.09840
H927        H  0.68578997  0.87651523  0.78482842     0.07860
Br928      Br  0.65410947  0.92559612  0.80418967    -0.02740
C929        C  0.07172534  0.54715552  0.55222527    -0.09380
C930        C  0.08431623  0.56243567  0.53611873     0.06820
C931        C  0.11254503  0.57706091  0.53873232    -0.03150
C932        C  0.12722940  0.57586999  0.55683027    -0.07600
C933        C  0.11453830  0.56062858  0.57270373     0.05930
C934        C  0.08632581  0.54647499  0.57039558    -0.02620
Br935      Br  0.06551758  0.52816725  0.59191319    -0.02320
H936        H  0.05021283  0.53573868  0.55076218     0.09840
H937        H  0.14880593  0.58711775  0.55855832     0.07860
Br938      Br  0.13210632  0.60097386  0.51918949    -0.02740
C939        C  0.07609748  0.53468134  0.44931589    -0.09380
C940        C  0.08096121  0.55818944  0.46270741     0.06820
C941        C  0.09957155  0.58253745  0.45728317    -0.03150
C942        C  0.11456781  0.58208938  0.43937142    -0.07600
C943        C  0.11058728  0.55817423  0.42615425     0.05930
C944        C  0.09033891  0.53468821  0.43103423    -0.02620
Br945      Br  0.07869627  0.50375366  0.41282512    -0.02320
H946        H  0.06075646  0.51651530  0.45297827     0.09840
H947        H  0.12928926  0.60075610  0.43573024     0.07860
Br948      Br  0.10302825  0.61837695  0.47281388    -0.02740
C949        C  0.52164899  0.17639671  0.55916912    -0.09380
C950        C  0.49608667  0.17512135  0.57125671     0.06820
C951        C  0.47147685  0.15670537  0.56547677    -0.03150
C952        C  0.47260323  0.14089227  0.54776253    -0.07600
C953        C  0.49791529  0.14275905  0.53563735     0.05930
C954        C  0.52276559  0.16037078  0.54156374    -0.02620
Br955      Br  0.55928063  0.16208209  0.52659650    -0.02320
H956        H  0.54090309  0.19005960  0.56335202     0.09840
H957        H  0.45362427  0.12692317  0.54343001     0.07860
Br958      Br  0.43662095  0.14995036  0.58147023    -0.02740
C959        C  0.52853003  0.15442398  0.45660995    -0.09380
C960        C  0.50084836  0.14345058  0.46319561     0.06820
C961        C  0.47446861  0.15096709  0.45304685    -0.03150
C962        C  0.47612996  0.16876885  0.43623482    -0.07600
C963        C  0.50385656  0.18032181  0.42937434     0.05930
C964        C  0.53041451  0.17293883  0.44009515    -0.02620
Br965      Br  0.57007787  0.18832314  0.43493544    -0.02320
H966        H  0.54881037  0.14921126  0.46478286     0.09840
H967        H  0.45530037  0.17360382  0.42868171     0.07860
Br968      Br  0.43553906  0.13846723  0.46218769    -0.02740
C969        C  0.52274744  0.95840087  0.53920461    -0.09380
C970        C  0.49929997  0.97869223  0.53557005     0.06820
C971        C  0.47621622  0.98187675  0.54950779    -0.03150
C972        C  0.47738252  0.96554861  0.56696172    -0.07600
C973        C  0.50115058  0.94561529  0.57085564     0.05930
C974        C  0.52379506  0.94176111  0.55655030    -0.02620
Br975      Br  0.55530717  0.91248635  0.55873599    -0.02320
H976        H  0.54023369  0.95528274  0.52836236     0.09840
H977        H  0.45955117  0.96853339  0.57756605     0.07860
Br978      Br  0.44165109  0.00673947  0.54491739    -0.02740
C979        C  0.52375285  0.95938238  0.45923034    -0.09380
C980        C  0.49898965  0.97802401  0.46291042     0.06820
C981        C  0.47523571  0.97903222  0.44925125    -0.03150
C982        C  0.47681210  0.96191777  0.43208445    -0.07600
C983        C  0.50174841  0.94344223  0.42821247     0.05930
C984        C  0.52530392  0.94205611  0.44215027    -0.02620
Br985      Br  0.55891198  0.91523732  0.43982679    -0.02320
H986        H  0.54185895  0.95803938  0.46986630     0.09840
H987        H  0.45836061  0.96307949  0.42170831     0.07860
Br988      Br  0.43937984  0.00191072  0.45391620    -0.02740
C989        C  0.89446626  0.53998353  0.53882496    -0.09380
C990        C  0.91990300  0.55888894  0.53762512     0.06820
C991        C  0.92726487  0.57734808  0.55386078    -0.03150
C992        C  0.90932909  0.57659903  0.57065862    -0.07600
C993        C  0.88381323  0.55792969  0.57172515     0.05930
C994        C  0.87631693  0.53959426  0.55553233    -0.02620
Br995      Br  0.83999434  0.51597825  0.55446438    -0.02320
H996        H  0.88820136  0.52592875  0.52647378     0.09840
H997        H  0.91519920  0.59099550  0.58292753     0.07860
Br998      Br  0.95988517  0.60594888  0.55362280    -0.02740
C999        C  0.92828555  0.55004915  0.44964353    -0.09380
C1000       C  0.91879593  0.56936161  0.46470823     0.06820
C1001       C  0.89344807  0.58780527  0.46146608    -0.03150
C1002       C  0.87781282  0.58598169  0.44366156    -0.07600
C1003       C  0.88697840  0.56615087  0.42880430     0.05930
C1004       C  0.91289603  0.54849617  0.43180108    -0.02620
Br1005     Br  0.92998919  0.52366067  0.41169899    -0.02320
H1006       H  0.94787412  0.53595177  0.45177288     0.09840
H1007       H  0.85827846  0.60011166  0.44143989     0.07860
Br1008     Br  0.88009800  0.61713210  0.48018434    -0.02740
C1009       C  0.59290318  0.03861753  0.93026418    -0.09380
C1010       C  0.61704963  0.05896032  0.92839530     0.06820
C1011       C  0.62504856  0.07724079  0.94450656    -0.03150
C1012       C  0.60829147  0.07568272  0.96174727    -0.07600
C1013       C  0.58377457  0.05575942  0.96353371     0.05930
C1014       C  0.57633717  0.03680460  0.94761648    -0.02620
Br1015     Br  0.54505985  0.00685921  0.94901563    -0.02320
H1016       H  0.58680383  0.02406564  0.91812189     0.09840
H1017       H  0.61452724  0.09015728  0.97389304     0.07860
Br1018     Br  0.65996918  0.10292849  0.94459365    -0.02740
C1019       C  0.62510718  0.07819425  0.05693486    -0.09380
C1020       C  0.61524253  0.06040157  0.07258981     0.06820
C1021       C  0.58906797  0.04262691  0.07027992    -0.03150
C1022       C  0.57405993  0.04194196  0.05227134    -0.07600
C1023       C  0.58421445  0.05925151  0.03640237     0.05930
C1024       C  0.60984670  0.07793518  0.03899524    -0.02620
Br1025     Br  0.62417144  0.10516240  0.01925058    -0.02320
H1026       H  0.64488619  0.09236597  0.05865309     0.09840
H1027       H  0.55416866  0.02789484  0.05070415     0.07860
Br1028     Br  0.57121170  0.02087632  0.09157380    -0.02740
C1029       C  0.02434635  0.64211132  0.95163458    -0.09380
C1030       C  0.99877482  0.64368887  0.96353512     0.06820
C1031       C  0.97455256  0.66198014  0.95786616    -0.03150
C1032       C  0.97649513  0.67887500  0.94068015    -0.07600
C1033       C  0.00232823  0.67785263  0.92878875     0.05930
C1034       C  0.02634883  0.65880309  0.93435990    -0.02620
Br1035     Br  0.06165148  0.65242043  0.91875600    -0.02320
H1036       H  0.04296698  0.62781952  0.95587864     0.09840
H1037       H  0.95767385  0.69303262  0.93668704     0.07860
Br1038     Br  0.93796701  0.66365339  0.97271863    -0.02740
C1039       C  0.98251224  0.65669601  0.06840465    -0.09380
C1040       C  0.00180695  0.68171036  0.07003128     0.06820
C1041       C  0.02131258  0.68861496  0.05439740    -0.03150
C1042       C  0.02168468  0.67022480  0.03778087    -0.07600
C1043       C  0.00253859  0.64506859  0.03615390     0.05930
C1044       C  0.98265170  0.63844829  0.05167445    -0.02620
Br1045     Br  0.95370164  0.60621241  0.05039176    -0.02320
H1046       H  0.96718362  0.65131898  0.08021524     0.09840
H1047       H  0.03670046  0.67593235  0.02586438     0.07860
Br1048     Br  0.04591741  0.72428697  0.05397426    -0.02740
loop_ 
_geom_bond_atom_site_label_1 
_geom_bond_atom_site_label_2 
_geom_bond_distance 
_geom_bond_site_symmetry_2 
_ccdc_geom_bond_type 
C1            C2   1.398   1_454  A
C1            C6   1.405       .  A
C1         C1043   1.484       .  S
C2            C3   1.395       .  A
C2            H7   1.084       .  S
C3            C4   1.401       .  A
C3         C1030   1.475       .  S
C4            C5   1.415   1_655  A
C4            H8   1.078       .  S
C5            C6   1.417   1_556  A
C5          C314   1.512   1_556  S
C6            H9   1.078       .  S
C10          C11   1.398       .  A
C10          C15   1.404       .  A
C10        C1013   1.484       .  S
C11          C12   1.397   1_556  A
C11          H16   1.084       .  S
C12          C13   1.406       .  A
C12        C1023   1.487       .  S
C13          C14   1.417   1_554  A
C13          H17   1.076       .  S
C14          C15   1.417       .  A
C14         C305   1.520       .  S
C15          H18   1.076       .  S
C19          C20   1.402       .  A
C19          C24   1.406       .  A
C19         C990   1.489       .  S
C20          C21   1.399       .  A
C20          H25   1.083       .  S
C21          C22   1.404       .  A
C21        C1000   1.487       .  S
C22          C23   1.413       .  A
C22          H26   1.079       .  S
C23          C24   1.414       .  A
C23          C50   1.509   1_655  S
C24          H27   1.080       .  S
C28          C29   1.395       .  A
C28          C33   1.404   1_565  A
C28         C980   1.478       .  S
C29          C30   1.395       .  A
C29          H34   1.085       .  S
C30          C31   1.403   1_565  A
C30         C970   1.480       .  S
C31          C32   1.419       .  A
C31          H35   1.075       .  S
C32          C33   1.418       .  A
C32          C39   1.521       .  S
C33          H36   1.076       .  S
C37          C38   1.403       .  A
C37          C42   1.393       .  A
C37         C960   1.474       .  S
C38          C39   1.420       .  A
C38          H43   1.076       .  S
C39          C40   1.419       .  A
C40          C41   1.402       .  A
C40          H44   1.075       .  S
C41          C42   1.394       .  A
C41         C953   1.476       .  S
C42          H45   1.085       .  S
C46          C47   1.403       .  A
C46          C51   1.411       .  A
C46         C930   1.497       .  S
C47          C48   1.400       .  A
C47          H52   1.082       .  S
C48          C49   1.400       .  A
C48         C940   1.480       .  S
C49          C50   1.412       .  A
C49          H53   1.079       .  S
C50          C51   1.414       .  A
C51          H54   1.080       .  S
N55          N56   1.321       .  A
N55          C59   1.345   1_545  A
N55         Cu63   2.068       .  S
N56          C57   1.344   1_545  A
N56         Cu62   2.071       .  S
C57          C58   1.384       .  A
C57          H60   1.082   1_565  S
C58          C59   1.384       .  A
C58         C920   1.477       .  S
C59          H61   1.082       .  S
Cu62         N65   2.071       .  S
Cu63         N73   2.068       .  S
Cu64         N66   2.078       .  S
Cu64         N72   2.078       .  S
N65          N66   1.322       .  A
N65          C69   1.344       .  A
N66          C67   1.346       .  A
C67          C68   1.385       .  A
C67          H70   1.082       .  S
C68          C69   1.382       .  A
C68         C913   1.476       .  S
C69          H71   1.082       .  S
N72          N73   1.322       .  A
N72          C76   1.345       .  A
N73          C74   1.344       .  A
C74          C75   1.382       .  A
C74          H77   1.082       .  S
C75          C76   1.386       .  A
C75        C1010   1.478       .  S
C76          H78   1.082       .  S
O79         Cu87   2.011       .  S
O79          C89   1.278       .  A
O80         Cu87   2.001       .  S
O80          C90   1.276       .  A
O81         Cu87   2.015       .  S
O81          C91   1.279       .  A
O82         Cu87   2.012       .  S
O82          C92   1.277       .  A
O83         Cu88   2.006       .  S
O83          C92   1.277       .  A
O84         Cu88   2.006       .  S
O84          C91   1.277       .  A
O85         Cu88   2.017       .  S
O85          C90   1.280       .  A
O86         Cu88   2.004       .  S
O86          C89   1.278       .  A
Cu87        Cu88   2.372       .  S
C89         C900   1.478       .  S
C90         C880   1.487       .  S
C91         C910   1.475       .  S
C92         C893   1.471       .  S
O93        Cu101   2.008       .  S
O93         C103   1.277       .  A
O94        Cu101   2.014       .  S
O94         C104   1.278       .  A
O95        Cu101   2.009       .  S
O95         C105   1.278       .  A
O96        Cu101   2.003       .  S
O96         C106   1.276       .  A
O97        Cu102   2.015       .  S
O97         C106   1.279       .  A
O98        Cu102   2.005       .  S
O98         C105   1.277       .  A
O99        Cu102   2.007       .  S
O99         C104   1.277       .  A
O100       Cu102   2.012       .  S
O100        C103   1.278       .  A
Cu101      Cu102   2.372       .  S
C103        C923   1.476       .  S
C104        C860   1.479       .  S
C105        C873   1.473       .  S
C106        C850   1.485       .  S
N107        N108   1.323   1_655  A
N107        C111   1.343       .  A
N107       Cu115   2.073       .  S
N108        C109   1.345       .  A
N108       Cu114   2.080       .  S
C109        C110   1.388       .  A
C109        H112   1.080       .  S
C110        C111   1.385   1_455  A
C110       C1033   1.486       .  S
C111        H113   1.082       .  S
Cu114       N117   2.080       .  S
Cu115       N125   2.072       .  S
Cu116       N118   2.063       .  S
Cu116       N124   2.063   1_455  S
N117        N118   1.321       .  A
N117        C121   1.348       .  A
N118        C119   1.341       .  A
C119        C120   1.383       .  A
C119        H122   1.081       .  S
C120        C121   1.388       .  A
C120        C840   1.481       .  S
C121        H123   1.082       .  S
N124        N125   1.319       .  A
N124        C128   1.341       .  A
N125        C126   1.346       .  A
C126        C127   1.389       .  A
C126        H129   1.081       .  S
C127        C128   1.385       .  A
C127        C853   1.485       .  S
C128        H130   1.082       .  S
O131       Cu139   2.009       .  S
O131        C141   1.278       .  A
O132       Cu139   2.010       .  S
O132        C142   1.277       .  A
O133       Cu139   2.005       .  S
O133        C143   1.276       .  A
O134       Cu139   2.009       .  S
O134        C144   1.279       .  A
O135       Cu140   2.005       .  S
O135        C144   1.276       .  A
O136       Cu140   2.011       .  S
O136        C143   1.280       .  A
O137       Cu140   2.007       .  S
O137        C142   1.278       .  A
O138       Cu140   2.008       .  S
O138        C141   1.277       .  A
Cu139      Cu140   2.370       .  S
C141        C843   1.471       .  S
C142        C820   1.481       .  S
C143        C830   1.487       .  S
C144        C810   1.482       .  S
N145        N146   1.321       .  A
N145        C149   1.347       .  A
N145       Cu153   2.075       .  S
N146        C147   1.342       .  A
N146       Cu152   2.068   1_655  S
C147        C148   1.384       .  A
C147        H150   1.082       .  S
C148        C149   1.388       .  A
C148        C883   1.482       .  S
C149        H151   1.081       .  S
Cu152       N155   2.068       .  S
Cu153       N163   2.076       .  S
Cu154       N156   2.075       .  S
Cu154       N162   2.076       .  S
N155        N156   1.320       .  A
N155        C159   1.342       .  A
N156        C157   1.346       .  A
C157        C158   1.390       .  A
C157        H160   1.080       .  S
C158        C159   1.387       .  A
C158        C800   1.490       .  S
C159        H161   1.082       .  S
N162        N163   1.323   1_455  A
N162        C166   1.344       .  A
N163        C164   1.345       .  A
C164        C165   1.384   1_655  A
C164        H167   1.082       .  S
C165        C166   1.384       .  A
C165        C790   1.480       .  S
C166        H168   1.082       .  S
O169       Cu177   2.007       .  S
O169        C179   1.277       .  A
O170       Cu177   2.005       .  S
O170        C180   1.277       .  A
O171       Cu177   2.012       .  S
O171        C181   1.277       .  A
O172       Cu177   2.008       .  S
O172        C182   1.277       .  A
O173       Cu178   2.012       .  S
O173        C182   1.279       .  A
O174       Cu178   2.007       .  S
O174        C181   1.279       .  A
O175       Cu178   2.010       .  S
O175        C180   1.278       .  A
O176       Cu178   2.005       .  S
O176        C179   1.277       .  A
Cu177      Cu178   2.369       .  S
C179        C773   1.472       .  S
C180        C763   1.481       .  S
C181        C803   1.492       .  S
C182        C780   1.480       .  S
N183        N184   1.320       .  A
N183        C187   1.346       .  A
N183       Cu191   2.070       .  S
N184        C185   1.341       .  A
N184       Cu190   2.065       .  S
C185        C186   1.386       .  A
C185        H188   1.082       .  S
C186        C187   1.388       .  A
C186        C760   1.484       .  S
C187        H189   1.081       .  S
Cu190       N193   2.065       .  S
Cu191       N201   2.071       .  S
Cu192       N194   2.075   1_545  S
Cu192       N200   2.075       .  S
N193        N194   1.320   1_545  A
N193        C197   1.342   1_545  A
N194        C195   1.346       .  A
C195        C196   1.388       .  A
C195        H198   1.082       .  S
C196        C197   1.384       .  A
C196        C813   1.482       .  S
C197        H199   1.081   1_565  S
N200        N201   1.323       .  A
N200        C204   1.344       .  A
N201        C202   1.343       .  A
C202        C203   1.382       .  A
C202        H205   1.082       .  S
C203        C204   1.384       .  A
C203        C750   1.476       .  S
C204        H206   1.082       .  S
N207        N208   1.320       .  A
N207        C211   1.347       .  A
N207       Cu215   2.077       .  S
N208        C209   1.341       .  A
N208       Cu214   2.062       .  S
C209        C210   1.384       .  A
C209        H212   1.081       .  S
C210        C211   1.389       .  A
C210        C833   1.484       .  S
C211        H213   1.082       .  S
Cu214       N217   2.062       .  S
Cu215       N225   2.078       .  S
Cu216       N218   2.075       .  S
Cu216       N224   2.076       .  S
N217        N218   1.321       .  A
N217        C221   1.341       .  A
N218        C219   1.347       .  A
C219        C220   1.386       .  A
C219        H222   1.082       .  S
C220        C221   1.382       .  A
C220        C770   1.478       .  S
C221        H223   1.082       .  S
N224        N225   1.324       .  A
N224        C228   1.345       .  A
N225        C226   1.344       .  A
C226        C227   1.382       .  A
C226        H229   1.082       .  S
C227        C228   1.382       .  A
C227        C933   1.475       .  S
C228        H230   1.082       .  S
N231        N232   1.321       .  A
N231        C235   1.347       .  A
N231       Cu239   2.078       .  S
N232        C233   1.342       .  A
N232       Cu238   2.066       .  S
C233        C234   1.383       .  A
C233        H236   1.081       .  S
C234        C235   1.387       .  A
C234        C903   1.480       .  S
C235        H237   1.082       .  S
Cu238       N241   2.065       .  S
Cu239       N249   2.078       .  S
Cu240       N242   2.073       .  S
Cu240       N248   2.074       .  S
N241        N242   1.320       .  A
N241        C245   1.343       .  A
N242        C243   1.346       .  A
C243        C244   1.386       .  A
C243        H246   1.082       .  S
C244        C245   1.384       .  A
C244        C783   1.479       .  S
C245        H247   1.082       .  S
N248        N249   1.322       .  A
N248        C252   1.344       .  A
N249        C250   1.344       .  A
C250        C251   1.387       .  A
C250        H253   1.082       .  S
C251        C252   1.386       .  A
C251        C950   1.484       .  S
C252        H254   1.081       .  S
N255        N256   1.321       .  A
N255        C259   1.346       .  A
N255       Cu263   2.078       .  S
N256        C257   1.342       .  A
N256       Cu262   2.067       .  S
C257        C258   1.385       .  A
C257        H260   1.081       .  S
C258        C259   1.388       .  A
C258        C823   1.485       .  S
C259        H261   1.082       .  S
Cu262       N265   2.067       .  S
Cu263       N273   2.078       .  S
Cu264       N266   2.074       .  S
Cu264       N272   2.074       .  S
N265        N266   1.321       .  A
N265        C269   1.343       .  A
N266        C267   1.346       .  A
C267        C268   1.385       .  A
C267        H270   1.082       .  S
C268        C269   1.383       .  A
C268        C870   1.478       .  S
C269        H271   1.082       .  S
N272        N273   1.322       .  A
N272        C276   1.344       .  A
N273        C274   1.345       .  A
C274        C275   1.387       .  A
C274        H277   1.082       .  S
C275        C276   1.385       .  A
C275        C973   1.484       .  S
C276        H278   1.081       .  S
N279        N280   1.322       .  A
N279        C283   1.345       .  A
N279       Cu287   2.070       .  S
N280        C281   1.346       .  A
N280       Cu286   2.075       .  S
C281        C282   1.383       .  A
C281        H284   1.082       .  S
C282        C283   1.382       .  A
C282        C890   1.473       .  S
C283        H285   1.082       .  S
Cu286       N289   2.076       .  S
Cu287       N297   2.070       .  S
Cu288       N290   2.080       .  S
Cu288       N296   2.080       .  S
N289        N290   1.322       .  A
N289        C293   1.344       .  A
N290        C291   1.346       .  A
C291        C292   1.386       .  A
C291        H294   1.081       .  S
C292        C293   1.384       .  A
C292        C863   1.483       .  S
C293        H295   1.082       .  S
N296        N297   1.322       .  A
N296        C300   1.346       .  A
N297        C298   1.344       .  A
C298        C299   1.383       .  A
C298        H301   1.082       .  S
C299        C300   1.385       .  A
C299        C993   1.479       .  S
C300        H302   1.082       .  S
C303        C304   1.404       .  A
C303        C308   1.396       .  A
C303        C753   1.485       .  S
C304        C305   1.418       .  A
C304        H309   1.075       .  S
C305        C306   1.419   1_556  A
C306        C307   1.404       .  A
C306        H310   1.075       .  S
C307        C308   1.395   1_554  A
C307        C743   1.483       .  S
C308        H311   1.084       .  S
C312        C313   1.401       .  A
C312        C317   1.395   1_655  A
C312        C730   1.477       .  S
C313        C314   1.415   1_655  A
C313        H318   1.078       .  S
C314        C315   1.417   1_554  A
C315        C316   1.406       .  A
C315        H319   1.078       .  S
C316        C317   1.399   1_556  A
C316        C793   1.486       .  S
C317        H320   1.084   1_455  S
N321        N322   1.322       .  A
N321        C325   1.343       .  A
N321       Cu329   2.061   1_655  S
N322        C323   1.347       .  A
N322       Cu328   2.082       .  S
C323        C324   1.386       .  A
C323        H326   1.082       .  S
C324        C325   1.379       .  A
C324        C720   1.474       .  S
C325        H327   1.082       .  S
Cu328       N331   2.083       .  S
Cu329       N339   2.061       .  S
Cu330       N332   2.070       .  S
Cu330       N338   2.069       .  S
N331        N332   1.323   1_655  A
N331        C335   1.346       .  A
N332        C333   1.343       .  A
C333        C334   1.382       .  A
C333        H336   1.082       .  S
C334        C335   1.385   1_455  A
C334       C1040   1.478       .  S
C335        H337   1.082       .  S
N338        N339   1.320       .  A
N338        C342   1.346       .  A
N339        C340   1.341       .  A
C340        C341   1.382       .  A
C340        H343   1.081       .  S
C341        C342   1.385       .  A
C341        C713   1.476       .  S
C342        H344   1.082       .  S
O345       Cu353   2.004       .  S
O345        C355   1.277       .  A
O346       Cu353   2.006       .  S
O346        C356   1.277       .  A
O347       Cu353   2.012       .  S
O347        C357   1.279       .  A
O348       Cu353   2.004       .  S
O348        C358   1.277       .  A
O349       Cu354   2.012       .  S
O349        C358   1.278       .  A
O350       Cu354   2.004       .  S
O350        C357   1.277       .  A
O351       Cu354   2.003       .  S
O351        C356   1.276       .  A
O352       Cu354   2.002       .  S
O352        C355   1.277       .  A
Cu353      Cu354   2.375       .  S
C355        C710   1.468       .  S
C356        C693   1.467       .  S
C357        C700   1.477       .  S
C358        C680   1.481       .  S
O359       Cu367   2.009       .  S
O359        C369   1.278       .  A
O360       Cu367   2.009       .  S
O360        C370   1.277       .  A
O361       Cu367   2.004       .  S
O361        C371   1.276       .  A
O362       Cu367   2.013       .  S
O362        C372   1.278       .  A
O363       Cu368   2.002       .  S
O363        C372   1.277       .  A
O364       Cu368   2.011       .  S
O364        C371   1.278       .  A
O365       Cu368   2.006       .  S
O365        C370   1.278       .  A
O366       Cu368   2.007       .  S
O366        C369   1.277       .  A
Cu367      Cu368   2.376       .  S
C369        C673   1.473       .  S
C370        C650   1.472       .  S
C371        C723   1.467       .  S
C372        C660   1.473       .  S
N373        N374   1.324       .  A
N373        C377   1.343       .  A
N373       Cu381   2.072       .  S
N374        C375   1.346       .  A
N374       Cu380   2.080       .  S
C375        C376   1.384       .  A
C375        H378   1.082       .  S
C376        C377   1.382       .  A
C376       C1020   1.476       .  S
C377        H379   1.082       .  S
Cu380       N383   2.080       .  S
Cu381       N391   2.071   1_545  S
Cu382       N384   2.067       .  S
Cu382       N390   2.067       .  S
N383        N384   1.321       .  A
N383        C387   1.347       .  A
N384        C385   1.342       .  A
C385        C386   1.383       .  A
C385        H388   1.081       .  S
C386        C387   1.387       .  A
C386        C643   1.481       .  S
C387        H389   1.082       .  S
N390        N391   1.321   1_545  A
N390        C394   1.342   1_545  A
N391        C392   1.346       .  A
C392        C393   1.385       .  A
C392        H395   1.082       .  S
C393        C394   1.384       .  A
C393        C653   1.478       .  S
C394        H396   1.082   1_565  S
O397       Cu405   2.011       .  S
O397        C407   1.278       .  A
O398       Cu405   2.013       .  S
O398        C408   1.278       .  A
O399       Cu405   2.003       .  S
O399        C409   1.276       .  A
O400       Cu405   2.001       .  S
O400        C410   1.276       .  A
O401       Cu406   2.012       .  S
O401        C410   1.279       .  A
O402       Cu406   2.010       .  S
O402        C409   1.279       .  A
O403       Cu406   2.011       .  S
O403        C408   1.277       .  A
O404       Cu406   2.009       .  S
O404        C407   1.277       .  A
Cu405      Cu406   2.370       .  S
C407        C640   1.475       .  S
C408        C620   1.473       .  S
C409        C630   1.487       .  S
C410        C610   1.483       .  S
N411        N412   1.323       .  A
N411        C415   1.344       .  A
N411       Cu419   2.071       .  S
N412        C413   1.344       .  A
N412       Cu418   2.076       .  S
C413        C414   1.384       .  A
C413        H416   1.082       .  S
C414        C415   1.383       .  A
C414        C740   1.477       .  S
C415        H417   1.082       .  S
Cu418       N421   2.076   1_545  S
Cu419       N429   2.071       .  S
Cu420       N422   2.065       .  S
Cu420       N428   2.065       .  S
N421        N422   1.321   1_565  A
N421        C425   1.346       .  A
N422        C423   1.342   1_545  A
C423        C424   1.383       .  A
C423        H426   1.082   1_565  S
C424        C425   1.387       .  A
C424        C683   1.480       .  S
C425        H427   1.081       .  S
N428        N429   1.320       .  A
N428        C432   1.342       .  A
N429        C430   1.346       .  A
C430        C431   1.387       .  A
C430        H433   1.081       .  S
C431        C432   1.384       .  A
C431        C603   1.480       .  S
C432        H434   1.082       .  S
N435        N436   1.322       .  A
N435        C439   1.347       .  A
N435       Cu443   2.081       .  S
N436        C437   1.343       .  A
N436       Cu442   2.070   1_455  S
C437        C438   1.384       .  A
C437        H440   1.081       .  S
C438        C439   1.387       .  A
C438        C590   1.484       .  S
C439        H441   1.082       .  S
Cu442       N445   2.070       .  S
Cu443       N453   2.081       .  S
Cu444       N446   2.065       .  S
Cu444       N452   2.065       .  S
N445        N446   1.320       .  A
N445        C449   1.343       .  A
N446        C447   1.344       .  A
C447        C448   1.387       .  A
C447        H450   1.081       .  S
C448        C449   1.387       .  A
C448        C613   1.484       .  S
C449        H451   1.082       .  S
N452        N453   1.322   1_655  A
N452        C456   1.343       .  A
N453        C454   1.345       .  A
C454        C455   1.387   1_455  A
C454        H457   1.082       .  S
C455        C456   1.383       .  A
C455        C733   1.482       .  S
C456        H458   1.081       .  S
O459       Cu467   2.012       .  S
O459        C469   1.276       .  A
O460       Cu467   2.011       .  S
O460        C470   1.278       .  A
O461       Cu467   2.008       .  S
O461        C471   1.277       .  A
O462       Cu467   2.006       .  S
O462        C472   1.276       .  A
O463       Cu468   2.004       .  S
O463        C472   1.278       .  A
O464       Cu468   2.004       .  S
O464        C471   1.278       .  A
O465       Cu468   2.011       .  S
O465        C470   1.277       .  A
O466       Cu468   2.011       .  S
O466        C469   1.280       .  A
Cu467      Cu468   2.367       .  S
C469        C570   1.493       .  S
C470        C593   1.480       .  S
C471        C600   1.483       .  S
C472        C580   1.484       .  S
N473        N474   1.322       .  A
N473        C477   1.341       .  A
N473       Cu481   2.064       .  S
N474        C475   1.349       .  A
N474       Cu480   2.090       .  S
C475        C476   1.390       .  A
C475        H478   1.082       .  S
C476        C477   1.383       .  A
C476        C573   1.485       .  S
C477        H479   1.081       .  S
Cu480       N483   2.090       .  S
Cu481       N491   2.063       .  S
Cu482       N484   2.069       .  S
Cu482       N490   2.068       .  S
N483        N484   1.320       .  A
N483        C487   1.345       .  A
N484        C485   1.342       .  A
C485        C486   1.390       .  A
C485        H488   1.075       .  S
C486        C487   1.397       .  A
C486        C963   1.502       .  S
C487        H489   1.081       .  S
N490        N491   1.319       .  A
N490        C494   1.345       .  A
N491        C492   1.343       .  A
C492        C493   1.385       .  A
C492        H495   1.081       .  S
C493        C494   1.387       .  A
C493        C633   1.482       .  S
C494        H496   1.082       .  S
N497        N498   1.321       .  A
N497        C501   1.347       .  A
N497       Cu505   2.081       .  S
N498        C499   1.341       .  A
N498       Cu504   2.062       .  S
C499        C500   1.384       .  A
C499        H502   1.082       .  S
C500        C501   1.390       .  A
C500        C703   1.484       .  S
C501        H503   1.081       .  S
Cu504       N507   2.062       .  S
Cu505       N515   2.082       .  S
Cu506       N508   2.070       .  S
Cu506       N514   2.071       .  S
N507        N508   1.320       .  A
N507        C511   1.342       .  A
N508        C509   1.345       .  A
C509        C510   1.387       .  A
C509        H512   1.082       .  S
C510        C511   1.385       .  A
C510        C583   1.482       .  S
C511        H513   1.081       .  S
N514        N515   1.323       .  A
N514        C518   1.344       .  A
N515        C516   1.345       .  A
C516        C517   1.387       .  A
C516        H519   1.082       .  S
C517        C518   1.384       .  A
C517        C943   1.482       .  S
C518        H520   1.081       .  S
N521        N522   1.322       .  A
N521        C525   1.347       .  A
N521       Cu529   2.081       .  S
N522        C523   1.344       .  A
N522       Cu528   2.068       .  S
C523        C524   1.381       .  A
C523        H526   1.082       .  S
C524        C525   1.385       .  A
C524        C623   1.474       .  S
C525        H527   1.082       .  S
Cu528       N531   2.068       .  S
Cu529       N539   2.081       .  S
Cu530       N532   2.073       .  S
Cu530       N538   2.074       .  S
N531        N532   1.321       .  A
N531        C535   1.343       .  A
N532        C533   1.346       .  A
C533        C534   1.385       .  A
C533        H536   1.082       .  S
C534        C535   1.383       .  A
C534        C670   1.478       .  S
C535        H537   1.082       .  S
N538        N539   1.323       .  A
N538        C542   1.345       .  A
N539        C540   1.345       .  A
C540        C541   1.386       .  A
C540        H543   1.082       .  S
C541        C542   1.383       .  A
C541       C1003   1.480       .  S
C542        H544   1.082       .  S
N545        N546   1.321       .  A
N545        C549   1.346       .  A
N545       Cu553   2.076       .  S
N546        C547   1.343       .  A
N546       Cu552   2.062       .  S
C547        C548   1.381       .  A
C547        H550   1.082       .  S
C548        C549   1.386       .  A
C548        C663   1.476       .  S
C549        H551   1.082       .  S
Cu552       N555   2.062       .  S
Cu553       N563   2.077       .  S
Cu554       N556   2.073       .  S
Cu554       N562   2.074       .  S
N555        N556   1.321       .  A
N555        C559   1.341       .  A
N556        C557   1.347       .  A
C557        C558   1.384       .  A
C557        H560   1.082       .  S
C558        C559   1.381       .  A
C558        C690   1.474       .  S
C559        H561   1.082       .  S
N562        N563   1.323       .  A
N562        C566   1.344       .  A
N563        C564   1.345       .  A
C564        C565   1.386       .  A
C564        H567   1.081       .  S
C565        C566   1.385       .  A
C565        C983   1.482       .  S
C566        H568   1.082       .  S
C569        C570   1.407       .  A
C569        C574   1.397       .  A
C569        H576   1.083       .  S
C570        C571   1.419       .  A
C571        C572   1.403       .  A
C571       Br578   1.922       .  S
C572        C573   1.403       .  A
C572        H577   1.083       .  S
C573        C574   1.412       .  A
C574       Br575   1.922       .  S
C579        C580   1.405       .  A
C579        C584   1.396       .  A
C579        H586   1.083       .  S
C580        C581   1.415       .  A
C581        C582   1.400       .  A
C581       Br588   1.922       .  S
C582        C583   1.404       .  A
C582        H587   1.083       .  S
C583        C584   1.412       .  A
C584       Br585   1.921       .  S
C589        C590   1.405       .  A
C589        C594   1.401       .  A
C589        H596   1.083       .  S
C590        C591   1.413       .  A
C591        C592   1.399       .  A
C591       Br598   1.921       .  S
C592        C593   1.403       .  A
C592        H597   1.084       .  S
C593        C594   1.412       .  A
C594       Br595   1.920       .  S
C599        C600   1.406       .  A
C599        C604   1.399       .  A
C599        H606   1.083       .  S
C600        C601   1.414       .  A
C601        C602   1.398       .  A
C601       Br608   1.922       .  S
C602        C603   1.404       .  A
C602        H607   1.083       .  S
C603        C604   1.411       .  A
C604       Br605   1.920       .  S
C609        C610   1.406       .  A
C609        C614   1.400       .  A
C609        H616   1.084       .  S
C610        C611   1.414       .  A
C611        C612   1.396       .  A
C611       Br618   1.921       .  S
C612        C613   1.404       .  A
C612        H617   1.083       .  S
C613        C614   1.413       .  A
C614       Br615   1.920       .  S
C619        C620   1.403       .  A
C619        C624   1.400       .  A
C619        H626   1.084       .  S
C620        C621   1.408       .  A
C621        C622   1.400       .  A
C621       Br628   1.915       .  S
C622        C623   1.402       .  A
C622        H627   1.084       .  S
C623        C624   1.409       .  A
C624       Br625   1.919       .  S
C629        C630   1.406       .  A
C629        C634   1.398       .  A
C629        H636   1.083       .  S
C630        C631   1.417       .  A
C631        C632   1.399       .  A
C631       Br638   1.923       .  S
C632        C633   1.403       .  A
C632        H637   1.083       .  S
C633        C634   1.411       .  A
C634       Br635   1.921       .  S
C639        C640   1.401       .  A
C639        C644   1.398       .  A
C639        H646   1.084       .  S
C640        C641   1.410       .  A
C641        C642   1.401       .  A
C641       Br648   1.920       .  S
C642        C643   1.405       .  A
C642        H647   1.083       .  S
C643        C644   1.413       .  A
C644       Br645   1.921       .  S
C649        C650   1.401       .  A
C649        C654   1.397       .  A
C649        H656   1.084       .  S
C650        C651   1.409       .  A
C651        C652   1.401       .  A
C651       Br658   1.919       .  S
C652        C653   1.405       .  A
C652        H657   1.083       .  S
C653        C654   1.412       .  A
C654       Br655   1.921       .  S
C659        C660   1.403       .  A
C659        C664   1.398       .  A
C659        H666   1.084       .  S
C660        C661   1.409       .  A
C661        C662   1.399       .  A
C661       Br668   1.920       .  S
C662        C663   1.404       .  A
C662        H667   1.084       .  S
C663        C664   1.410       .  A
C664       Br665   1.920       .  S
C669        C670   1.404       .  A
C669        C674   1.400       .  A
C669        H676   1.083       .  S
C670        C671   1.411       .  A
C671        C672   1.398       .  A
C671       Br678   1.920       .  S
C672        C673   1.401       .  A
C672        H677   1.084       .  S
C673        C674   1.409       .  A
C674       Br675   1.920       .  S
C679        C680   1.406       .  A
C679        C684   1.400       .  A
C679        H686   1.084       .  S
C680        C681   1.413       .  A
C681        C682   1.398       .  A
C681       Br688   1.921       .  S
C682        C683   1.404       .  A
C682        H687   1.084       .  S
C683        C684   1.411       .  A
C684       Br685   1.920       .  S
C689        C690   1.403       .  A
C689        C694   1.399       .  A
C689        H696   1.083       .  S
C690        C691   1.411       .  A
C691        C692   1.397       .  A
C691       Br698   1.920       .  S
C692        C693   1.400       .  A
C692        H697   1.084       .  S
C693        C694   1.408       .  A
C694       Br695   1.919       .  S
C699        C700   1.404       .  A
C699        C704   1.400       .  A
C699        H706   1.083       .  S
C700        C701   1.409       .  A
C701        C702   1.397       .  A
C701       Br708   1.921       .  S
C702        C703   1.406       .  A
C702        H707   1.083       .  S
C703        C704   1.413       .  A
C704       Br705   1.919       .  S
C709        C710   1.400       .  A
C709        C714   1.395       .  A
C709        H716   1.084       .  S
C710        C711   1.408       .  A
C711        C712   1.400       .  A
C711       Br718   1.920       .  S
C712        C713   1.405       .  A
C712        H717   1.083       .  S
C713        C714   1.412       .  A
C714       Br715   1.921       .  S
C719        C720   1.404       .  A
C719        C724   1.398       .  A
C719        H726   1.084       .  S
C720        C721   1.409       .  A
C721        C722   1.399       .  A
C721       Br728   1.918       .  S
C722        C723   1.402       .  A
C722        H727   1.083       .  S
C723        C724   1.406       .  A
C724       Br725   1.919       .  S
C729        C730   1.401       .  A
C729        C734   1.399       .  A
C729        H736   1.084       .  S
C730        C731   1.408   1_655  A
C731        C732   1.397       .  A
C731       Br738   1.920       .  S
C732        C733   1.405   1_455  A
C732        H737   1.083       .  S
C733        C734   1.415       .  A
C734       Br735   1.920       .  S
C739        C740   1.405       .  A
C739        C744   1.400       .  A
C739        H746   1.083       .  S
C740        C741   1.409       .  A
C741        C742   1.396       .  A
C741       Br748   1.920       .  S
C742        C743   1.405       .  A
C742        H747   1.084       .  S
C743        C744   1.410       .  A
C744       Br745   1.920       .  S
C749        C750   1.404       .  A
C749        C754   1.399       .  A
C749        H756   1.083       .  S
C750        C751   1.409       .  A
C751        C752   1.396       .  A
C751       Br758   1.921       .  S
C752        C753   1.406       .  A
C752        H757   1.084       .  S
C753        C754   1.412       .  A
C754       Br755   1.921       .  S
C759        C760   1.405       .  A
C759        C764   1.396       .  A
C759        H766   1.083       .  S
C760        C761   1.413       .  A
C761        C762   1.400       .  A
C761       Br768   1.920       .  S
C762        C763   1.405       .  A
C762        H767   1.084       .  S
C763        C764   1.412       .  A
C764       Br765   1.919       .  S
C769        C770   1.405       .  A
C769        C774   1.401       .  A
C769        H776   1.083       .  S
C770        C771   1.412       .  A
C771        C772   1.396       .  A
C771       Br778   1.921       .  S
C772        C773   1.401       .  A
C772        H777   1.084       .  S
C773        C774   1.409       .  A
C774       Br775   1.920       .  S
C779        C780   1.404       .  A
C779        C784   1.399       .  A
C779        H786   1.084       .  S
C780        C781   1.412       .  A
C781        C782   1.399       .  A
C781       Br788   1.917       .  S
C782        C783   1.403       .  A
C782        H787   1.083       .  S
C783        C784   1.410       .  A
C784       Br785   1.920       .  S
C789        C790   1.404   1_655  A
C789        C794   1.400       .  A
C789        H796   1.083       .  S
C790        C791   1.410       .  A
C791        C792   1.398       .  A
C791       Br798   1.920       .  S
C792        C793   1.405       .  A
C792        H797   1.083       .  S
C793        C794   1.413   1_455  A
C794       Br795   1.922       .  S
C799        C800   1.405       .  A
C799        C804   1.398       .  A
C799        H806   1.083       .  S
C800        C801   1.414       .  A
C801        C802   1.400       .  A
C801       Br808   1.920       .  S
C802        C803   1.408       .  A
C802        H807   1.083       .  S
C803        C804   1.417       .  A
C804       Br805   1.923       .  S
C809        C810   1.404       .  A
C809        C814   1.397       .  A
C809        H816   1.084       .  S
C810        C811   1.414       .  A
C811        C812   1.400       .  A
C811       Br818   1.922       .  S
C812        C813   1.405       .  A
C812        H817   1.083       .  S
C813        C814   1.412       .  A
C814       Br815   1.921       .  S
C819        C820   1.403       .  A
C819        C824   1.398       .  A
C819        H826   1.084       .  S
C820        C821   1.412       .  A
C821        C822   1.401       .  A
C821       Br828   1.921       .  S
C822        C823   1.405       .  A
C822        H827   1.083       .  S
C823        C824   1.414       .  A
C824       Br825   1.921       .  S
C829        C830   1.405       .  A
C829        C834   1.397       .  A
C829        H836   1.083       .  S
C830        C831   1.416       .  A
C831        C832   1.401       .  A
C831       Br838   1.922       .  S
C832        C833   1.404       .  A
C832        H837   1.083       .  S
C833        C834   1.412       .  A
C834       Br835   1.921       .  S
C839        C840   1.405       .  A
C839        C844   1.401       .  A
C839        H846   1.083       .  S
C840        C841   1.414       .  A
C841        C842   1.397       .  A
C841       Br848   1.921       .  S
C842        C843   1.400       .  A
C842        H847   1.084       .  S
C843        C844   1.408       .  A
C844       Br845   1.920       .  S
C849        C850   1.407       .  A
C849        C854   1.401       .  A
C849        H856   1.083       .  S
C850        C851   1.414       .  A
C851        C852   1.396       .  A
C851       Br858   1.921       .  S
C852        C853   1.404       .  A
C852        H857   1.083       .  S
C853        C854   1.413       .  A
C854       Br855   1.920       .  S
C859        C860   1.404       .  A
C859        C864   1.401       .  A
C859        H866   1.084       .  S
C860        C861   1.411       .  A
C861        C862   1.399       .  A
C861       Br868   1.921       .  S
C862        C863   1.404       .  A
C862        H867   1.083       .  S
C863        C864   1.413       .  A
C864       Br865   1.920       .  S
C869        C870   1.405       .  A
C869        C874   1.400       .  A
C869        H876   1.083       .  S
C870        C871   1.411       .  A
C871        C872   1.398       .  A
C871       Br878   1.920       .  S
C872        C873   1.402       .  A
C872        H877   1.084       .  S
C873        C874   1.409       .  A
C874       Br875   1.920       .  S
C879        C880   1.407       .  A
C879        C884   1.400       .  A
C879        H886   1.083       .  S
C880        C881   1.416       .  A
C881        C882   1.397       .  A
C881       Br888   1.922       .  S
C882        C883   1.403       .  A
C882        H887   1.083       .  S
C883        C884   1.411       .  A
C884       Br885   1.919       .  S
C889        C890   1.402       .  A
C889        C894   1.399       .  A
C889        H896   1.084       .  S
C890        C891   1.410       .  A
C891        C892   1.399       .  A
C891       Br898   1.919       .  S
C892        C893   1.402       .  A
C892        H897   1.084       .  S
C893        C894   1.409       .  A
C894       Br895   1.920       .  S
C899        C900   1.402       .  A
C899        C904   1.397       .  A
C899        H906   1.084       .  S
C900        C901   1.412       .  A
C901        C902   1.401       .  A
C901       Br908   1.920       .  S
C902        C903   1.404       .  A
C902        H907   1.083       .  S
C903        C904   1.412       .  A
C904       Br905   1.921       .  S
C909        C910   1.403       .  A
C909        C914   1.400       .  A
C909        H916   1.084       .  S
C910        C911   1.409       .  A
C911        C912   1.398       .  A
C911       Br918   1.917       .  S
C912        C913   1.403       .  A
C912        H917   1.084       .  S
C913        C914   1.410       .  A
C914       Br915   1.919       .  S
C919        C920   1.402       .  A
C919        C924   1.397       .  A
C919        H926   1.084       .  S
C920        C921   1.411       .  A
C921        C922   1.400       .  A
C921       Br928   1.920       .  S
C922        C923   1.404       .  A
C922        H927   1.084       .  S
C923        C924   1.410       .  A
C924       Br925   1.916       .  S
C929        C930   1.410       .  A
C929        C934   1.399       .  A
C929        H936   1.083       .  S
C930        C931   1.419       .  A
C931        C932   1.397       .  A
C931       Br938   1.916       .  S
C932        C933   1.398       .  A
C932        H937   1.084       .  S
C933        C934   1.407       .  A
C934       Br935   1.919       .  S
C939        C940   1.402       .  A
C939        C944   1.402       .  A
C939        H946   1.084       .  S
C940        C941   1.409       .  A
C941        C942   1.395       .  A
C941       Br948   1.916       .  S
C942        C943   1.403       .  A
C942        H947   1.083       .  S
C943        C944   1.415       .  A
C944       Br945   1.919       .  S
C949        C950   1.406       .  A
C949        C954   1.397       .  A
C949        H956   1.083       .  S
C950        C951   1.416       .  A
C951        C952   1.399       .  A
C951       Br958   1.920       .  S
C952        C953   1.400       .  A
C952        H957   1.084       .  S
C953        C954   1.407       .  A
C954       Br955   1.920       .  S
C959        C960   1.396       .  A
C959        C964   1.400       .  A
C959        H966   1.084       .  S
C960        C961   1.401       .  A
C961        C962   1.398       .  A
C961       Br968   1.919       .  S
C962        C963   1.413       .  A
C962        H967   1.080       .  S
C963        C964   1.426       .  A
C964       Br965   1.919       .  S
C969        C970   1.402       .  A
C969        C974   1.399       .  A
C969        H976   1.084       .  S
C970        C971   1.408       .  A
C971        C972   1.398       .  A
C971       Br978   1.920   1_565  S
C972        C973   1.406       .  A
C972        H977   1.083       .  S
C973        C974   1.415       .  A
C974       Br975   1.920       .  S
C979        C980   1.402       .  A
C979        C984   1.398       .  A
C979        H986   1.084       .  S
C980        C981   1.407       .  A
C981        C982   1.398       .  A
C981       Br988   1.920   1_565  S
C982        C983   1.406       .  A
C982        H987   1.083       .  S
C983        C984   1.414       .  A
C984       Br985   1.920       .  S
C989        C990   1.406       .  A
C989        C994   1.399       .  A
C989        H996   1.083       .  S
C990        C991   1.414       .  A
C991        C992   1.399       .  A
C991       Br998   1.922       .  S
C992        C993   1.403       .  A
C992        H997   1.083       .  S
C993        C994   1.410       .  A
C994       Br995   1.920       .  S
C999       C1000   1.405       .  A
C999       C1004   1.397       .  A
C999       H1006   1.084       .  S
C1000      C1001   1.412       .  A
C1001      C1002   1.401       .  A
C1001     Br1008   1.920       .  S
C1002      C1003   1.405       .  A
C1002      H1007   1.083       .  S
C1003      C1004   1.410       .  A
C1004     Br1005   1.920       .  S
C1009      C1010   1.405       .  A
C1009      C1014   1.399       .  A
C1009      H1016   1.083       .  S
C1010      C1011   1.410       .  A
C1011      C1012   1.397       .  A
C1011     Br1018   1.920       .  S
C1012      C1013   1.405       .  A
C1012      H1017   1.083       .  S
C1013      C1014   1.411       .  A
C1014     Br1015   1.921       .  S
C1019      C1020   1.402       .  A
C1019      C1024   1.399       .  A
C1019      H1026   1.084       .  S
C1020      C1021   1.410       .  A
C1021      C1022   1.398       .  A
C1021     Br1028   1.920       .  S
C1022      C1023   1.405       .  A
C1022      H1027   1.083       .  S
C1023      C1024   1.415       .  A
C1024     Br1025   1.922       .  S
C1029      C1030   1.400   1_455  A
C1029      C1034   1.398       .  A
C1029      H1036   1.084       .  S
C1030      C1031   1.405       .  A
C1031      C1032   1.398       .  A
C1031     Br1038   1.919       .  S
C1032      C1033   1.408   1_655  A
C1032      H1037   1.083       .  S
C1033      C1034   1.416       .  A
C1034     Br1035   1.920       .  S
C1039      C1040   1.403   1_655  A
C1039      C1044   1.400       .  A
C1039      H1046   1.083       .  S
C1040      C1041   1.410       .  A
C1041      C1042   1.397       .  A
C1041     Br1048   1.920       .  S
C1042      C1043   1.404       .  A
C1042      H1047   1.084       .  S
C1043      C1044   1.412   1_455  A
C1044     Br1045   1.921       .  S
