geometry optimzed in LAMMPS
_audit_creation_date              2020-11-30 
_audit_creation_method            'lammps2cif' 
_symmetry_space_group_name_H-M    'P1' 
_symmetry_Int_Tables_number       1 
_symmetry_cell_setting            triclinic 
loop_ 
_symmetry_equiv_pos_as_xyz 
  x,y,z 
_cell_length_a                    37.348986179553826 
_cell_length_b                    48.43782229863303 
_cell_length_c                    27.50554361983057 
_cell_angle_alpha                 90.34312545908057 
_cell_angle_beta                  90.01233342670942 
_cell_angle_gamma                 90.02108043672821 
loop_ 
_atom_site_label 
_atom_site_type_symbol 
_atom_site_fract_x 
_atom_site_fract_y 
_atom_site_fract_z 
_atom_site_charge 
N1          N  0.70685951  0.07727697  0.29680033    -0.27680
N2          N  0.69101740  0.10093157  0.30763527    -0.35540
C3          C  0.66233274  0.09592013  0.33570069     0.00660
C4          C  0.66019737  0.06777321  0.34347756     0.06680
C5          C  0.68860601  0.05657242  0.31773818    -0.06420
H6          H  0.64427158  0.11165465  0.34913052     0.07350
H7          H  0.69570862  0.03496403  0.31483870     0.08550
Cu8        Cu  0.70905853  0.13918241  0.28511096     0.44170
Cu9        Cu  0.75244874  0.07416762  0.25401950     0.41990
Cu10       Cu  0.78328933  0.13890019  0.20270309     0.43880
N11         N  0.73334654  0.17487759  0.26052810    -0.35070
N12         N  0.76071330  0.17476600  0.23010376    -0.29320
C13         C  0.77123087  0.20091716  0.22229692    -0.05420
C14         C  0.74933490  0.21829310  0.24907821     0.06790
C15         C  0.72559385  0.20111034  0.27285613     0.00590
H16         H  0.79338296  0.20676995  0.19922151     0.08240
H17         H  0.70452809  0.20714377  0.29769062     0.07320
N18         N  0.80567289  0.10083277  0.18683093    -0.36520
N19         N  0.79570892  0.07739920  0.20710086    -0.28700
C20         C  0.81737835  0.05707083  0.19129909    -0.03940
C21         C  0.84234099  0.06824285  0.15964127     0.04670
C22         C  0.83347149  0.09598166  0.15708026     0.02760
H23         H  0.81516530  0.03571427  0.20228506     0.07870
H24         H  0.84592060  0.11164675  0.13492204     0.06700
O25         O  0.96166938  0.98628555  0.06448157    -0.73340
O26         O  0.03745093  0.94637225  0.98842883    -0.74320
O27         O  0.03797859  0.98518115  0.06621517    -0.62940
O28         O  0.96182714  0.94772543  0.98759981    -0.71350
O29         O  0.96423143  0.98118612  0.93329245    -0.70900
O30         O  0.03816099  0.02017297  0.01427173    -0.62150
O31         O  0.04023351  0.98137806  0.93673783    -0.74660
O32         O  0.96261195  0.02025155  0.01058255    -0.73440
Cu33       Cu  0.99974310  0.96520601  0.02858137     1.04560
Cu34       Cu  0.00137879  0.00194514  0.97183518     1.04330
C35         C  0.94983101  0.00936548  0.04901205     0.92860
C36         C  0.05067905  0.95758620  0.95054594     0.92000
C37         C  0.04978757  0.00867477  0.05281444     0.84150
C38         C  0.95074064  0.95849428  0.94808503     0.90420
N39         N  0.20686986  0.07595365  0.20547773    -0.27680
N40         N  0.19231644  0.09956266  0.19198901    -0.35540
C41         C  0.16410782  0.09421003  0.16309414     0.00660
C42         C  0.16101307  0.06587525  0.15772729     0.06680
C43         C  0.18832287  0.05495918  0.18562780    -0.06420
H44         H  0.14723641  0.10981782  0.14689300     0.07350
H45         H  0.19410392  0.03335720  0.19163034     0.08550
Cu46       Cu  0.21162111  0.13792107  0.21303972     0.44170
Cu47       Cu  0.25130034  0.07321668  0.24986851     0.41990
Cu48       Cu  0.28852763  0.13797043  0.29294122     0.43880
N49         N  0.23667818  0.17354324  0.23759215    -0.35070
N50         N  0.26483262  0.17359705  0.26673436    -0.29320
C51         C  0.27481742  0.19985713  0.27540282    -0.05420
C52         C  0.25179336  0.21710759  0.25052237     0.06790
C53         C  0.22795477  0.19974982  0.22696286     0.00590
H54         H  0.29715875  0.20588363  0.29811816     0.08240
H55         H  0.20591337  0.20566739  0.20375569     0.07320
N56         N  0.30837320  0.09954778  0.31184258    -0.36520
N57         N  0.29530830  0.07595222  0.29509810    -0.28700
C58         C  0.31464268  0.05494662  0.31304755    -0.03940
C59         C  0.34077061  0.06592284  0.34286017     0.04670
C60         C  0.33615489  0.09417706  0.34138414     0.02760
H61         H  0.30971101  0.03332282  0.30549145     0.07870
H62         H  0.35192334  0.10967167  0.36012181     0.06700
N63         N  0.79745682  0.88893942  0.78830718    -0.27680
N64         N  0.81409235  0.86540608  0.79677206    -0.35540
C65         C  0.84294748  0.87034142  0.82461326     0.00660
C66         C  0.84401755  0.89828129  0.83591169     0.06680
C67         C  0.81488120  0.90941168  0.81154455    -0.06420
H68         H  0.86158253  0.85452230  0.83563275     0.07350
H69         H  0.80650833  0.93079373  0.81130333     0.08550
Cu70       Cu  0.79474938  0.82714889  0.77561532     0.44170
Cu71       Cu  0.75182210  0.89193844  0.74574159     0.41990
Cu72       Cu  0.70670608  0.82681968  0.72232914     0.43880
N73         N  0.76670912  0.79135127  0.75969494    -0.35070
N74         N  0.73438032  0.79117844  0.74014201    -0.29320
C75         C  0.72365335  0.76486164  0.73410276    -0.05420
C76         C  0.75042478  0.74771607  0.75113695     0.06790
C77         C  0.77727954  0.76518801  0.76718975     0.00590
H78         H  0.69822889  0.75872261  0.71864454     0.08240
H79         H  0.80270129  0.75937187  0.78290739     0.07320
N80         N  0.68780417  0.86477835  0.69924611    -0.36520
N81         N  0.70541424  0.88821253  0.70484351    -0.28700
C82         C  0.68793578  0.90823847  0.68097011    -0.03940
C83         C  0.65757087  0.89700642  0.65927313     0.04670
C84         C  0.65816867  0.86942677  0.67287733     0.02760
H85         H  0.69705602  0.92940589  0.67921168     0.07870
H86         H  0.63863378  0.85364738  0.66479126     0.06700
O87         O  0.46234647  0.02003653  0.48918945    -0.73340
O88         O  0.53750109  0.98014070  0.56537423    -0.74320
O89         O  0.53835070  0.01921150  0.48889237    -0.62940
O90         O  0.46139409  0.98091217  0.56507855    -0.71350
O91         O  0.46217331  0.94640354  0.51149418    -0.70900
O92         O  0.53717411  0.98562659  0.43427022    -0.62150
O93         O  0.53792500  0.94664487  0.51023911    -0.74660
O94         O  0.46167432  0.98585016  0.43504137    -0.73440
Cu95       Cu  0.49989796  0.00126880  0.52905761     1.04560
Cu96       Cu  0.49964768  0.96494532  0.47091557     1.04330
C97         C  0.45039608  0.00932374  0.44989111     0.92860
C98         C  0.55009754  0.95728681  0.54953055     0.92000
C99         C  0.55004392  0.00851051  0.44931693     0.84150
C100        C  0.44988222  0.95749587  0.55026200     0.90420
N101        N  0.20687204  0.88977436  0.79493228    -0.27680
N102        N  0.19460650  0.86639183  0.81296257    -0.35540
C103        C  0.16760350  0.87206419  0.84371057     0.00660
C104        C  0.16256190  0.90042887  0.84531507     0.06680
C105        C  0.18766174  0.91088076  0.81314897    -0.06420
H106        H  0.15269436  0.85658375  0.86344230     0.07350
H107        H  0.19149512  0.93219651  0.80289478     0.08550
Cu108      Cu  0.21407229  0.82776331  0.79355899     0.44170
Cu109      Cu  0.25010291  0.89220302  0.74808987     0.41990
Cu110      Cu  0.28698319  0.82717980  0.70700169     0.43880
N111        N  0.23698349  0.79191687  0.76607332    -0.35070
N112        N  0.26366155  0.79174894  0.73448431    -0.29320
C113        C  0.27258855  0.76545852  0.72423224    -0.05420
C114        C  0.25033830  0.74827248  0.75046461     0.06790
C115        C  0.22806457  0.76571098  0.77655420     0.00590
H116        H  0.29365682  0.75936839  0.69944394     0.08240
H117        H  0.20701678  0.75984182  0.80144951     0.07320
N118        N  0.30825270  0.86525718  0.68894436    -0.36520
N119        N  0.29534118  0.88900240  0.70497248    -0.28700
C120        C  0.31618927  0.90962871  0.68883256    -0.03940
C121        C  0.34373613  0.89836807  0.66138406     0.04670
C122        C  0.33738085  0.87015745  0.66166350     0.02760
H123        H  0.31168216  0.93125866  0.69677271     0.07870
H124        H  0.35243852  0.85426000  0.64301789     0.06700
N125        N  0.70433375  0.57528611  0.71511748    -0.27680
N126        N  0.69079597  0.59885547  0.69955722    -0.35540
C127        C  0.66214015  0.59352575  0.67149290     0.00660
C128        C  0.65691019  0.56523625  0.66973609     0.06680
C129        C  0.68450277  0.55431773  0.69731280    -0.06420
H130        H  0.64655033  0.60917327  0.65324210     0.07350
H131        H  0.68965080  0.53269927  0.70420789     0.08550
Cu132      Cu  0.71120001  0.63745186  0.71703925     0.44170
Cu133      Cu  0.74929620  0.57287897  0.75959729     0.41990
Cu134      Cu  0.79148458  0.63861247  0.78895915     0.43880
N135        N  0.73602893  0.67360389  0.73949443    -0.35070
N136        N  0.76579442  0.67399893  0.76547365    -0.29320
C137        C  0.77547115  0.70036529  0.77363777    -0.05420
C138        C  0.75048954  0.71735643  0.75186174     0.06790
C139        C  0.72581760  0.69972372  0.73061049     0.00590
H140        H  0.79887507  0.70664423  0.79404607     0.08240
H141        H  0.70236105  0.70540002  0.70990043     0.07320
N142        N  0.81128073  0.60071370  0.81077990    -0.36520
N143        N  0.79549120  0.57680532  0.80141464    -0.28700
C144        C  0.81448511  0.55648608  0.82240211    -0.03940
C145        C  0.84379518  0.56819891  0.84532345     0.04670
C146        C  0.84090175  0.59622758  0.83738200     0.02760
H147        H  0.80763546  0.53478466  0.82077904     0.07870
H148        H  0.85869723  0.61222963  0.85060242     0.06700
N149        N  0.70931512  0.39021922  0.29795787    -0.27680
N150        N  0.69706412  0.36676456  0.31593163    -0.35540
C151        C  0.66971744  0.37227246  0.34623526     0.00660
C152        C  0.66441883  0.40048030  0.34709372     0.06680
C153        C  0.68973045  0.41125716  0.31588401    -0.06420
H154        H  0.65449002  0.35685044  0.36566983     0.07350
H155        H  0.69389591  0.43280486  0.30730333     0.08550
Cu156      Cu  0.71684620  0.32815324  0.29729835     0.44170
Cu157      Cu  0.75296490  0.39263663  0.25145521     0.41990
Cu158      Cu  0.79345246  0.32727656  0.21770605     0.43880
N159        N  0.73966931  0.29218382  0.27039480    -0.35070
N160        N  0.76770731  0.29191720  0.24108628    -0.29320
C161        C  0.77555306  0.26564574  0.22919510    -0.05420
C162        C  0.75125059  0.24857505  0.25213367     0.06790
C163        C  0.72889732  0.26606089  0.27798730     0.00590
H164        H  0.79718885  0.25950422  0.20536852     0.08240
H165        H  0.70628612  0.26029756  0.30029953     0.07320
N166        N  0.81384259  0.36526738  0.19758776    -0.36520
N167        N  0.79890753  0.38914885  0.20937434    -0.28700
C168        C  0.81839608  0.40973212  0.19013231    -0.03940
C169        C  0.84696241  0.39815129  0.16548485     0.04670
C170        C  0.84323014  0.36999034  0.17064013     0.02760
H171        H  0.81220988  0.43147225  0.19374280     0.07870
H172        H  0.86039188  0.35410465  0.15562062     0.06700
N173        N  0.20075794  0.57706734  0.78988484    -0.27680
N174        N  0.18807525  0.60118861  0.80471955    -0.35540
C175        C  0.15918345  0.59702676  0.83281839     0.00660
C176        C  0.15308560  0.56900689  0.83531212     0.06680
C177        C  0.17990847  0.55686086  0.80789257    -0.06420
H178        H  0.14393075  0.61321163  0.85045759     0.07350
H179        H  0.18445032  0.53499425  0.80246165     0.08550
Cu180      Cu  0.21020666  0.63893538  0.78711101     0.44170
Cu181      Cu  0.24672290  0.57303991  0.74757271     0.41990
Cu182      Cu  0.28821276  0.63814538  0.71162827     0.43880
N183        N  0.23560499  0.67446065  0.76418420    -0.35070
N184        N  0.26426190  0.67425364  0.73604050    -0.29320
C185        C  0.27400539  0.70044769  0.72684973    -0.05420
C186        C  0.25031801  0.71790946  0.75050043     0.06790
C187        C  0.22634731  0.70074454  0.77384719     0.00590
H188        H  0.29660691  0.70629349  0.70458809     0.08240
H189        H  0.20369238  0.70684064  0.79589054     0.07320
N190        N  0.30711358  0.59951753  0.69134454    -0.36520
N191        N  0.29246708  0.57585132  0.70459221    -0.28700
C192        C  0.31144192  0.55494810  0.68495447    -0.03940
C193        C  0.33893999  0.56601311  0.65746737     0.04670
C194        C  0.33557257  0.59430250  0.66285162     0.02760
H195        H  0.30535916  0.53327766  0.68973873     0.07870
H196        H  0.35270116  0.61001327  0.64745546     0.06700
O197        O  0.96310370  0.52097298  0.99851560    -0.73340
O198        O  0.04099320  0.47899619  0.06677737    -0.74320
O199        O  0.03910888  0.52109898  0.99520702    -0.62940
O200        O  0.96510988  0.47862844  0.06986868    -0.71350
O201        O  0.96344959  0.44674962  0.01156033    -0.70900
O202        O  0.03770915  0.48904939  0.93737223    -0.62150
O203        O  0.03926247  0.44661049  0.00925353    -0.74660
O204        O  0.96198302  0.48894499  0.94038182    -0.73440
Cu205      Cu  0.00214283  0.50103100  0.03465574     1.04560
Cu206      Cu  0.00062698  0.46672559  0.97261046     1.04330
C207        C  0.95029422  0.51149760  0.95870589     0.92860
C208        C  0.05204018  0.45610962  0.04906317     0.92000
C209        C  0.04994582  0.51183015  0.95421518     0.84150
C210        C  0.95239564  0.45617286  0.05233019     0.90420
O211        O  0.53932976  0.44525320  0.49042667    -0.73340
O212        O  0.46322013  0.48433933  0.56723722    -0.74320
O213        O  0.46327243  0.44590619  0.48893867    -0.62940
O214        O  0.53956193  0.48375013  0.56824953    -0.71350
O215        O  0.53990137  0.51842093  0.51571741    -0.70900
O216        O  0.46406961  0.48042987  0.43668866    -0.62150
O217        O  0.46421583  0.51888877  0.51510367    -0.74660
O218        O  0.53998688  0.47963791  0.43749325    -0.73440
Cu219      Cu  0.50131144  0.46360871  0.53055070     1.04560
Cu220      Cu  0.50209046  0.50052505  0.47440088     1.04330
C221        C  0.55153691  0.45618831  0.45167956     0.92860
C222        C  0.45173789  0.50790970  0.55373859     0.92000
C223        C  0.45158615  0.45715716  0.45008090     0.84150
C224        C  0.55163019  0.50709152  0.55435193     0.90420
N225        N  0.29601270  0.38928549  0.29262701    -0.27680
N226        N  0.30934385  0.36574653  0.30871342    -0.35540
C227        C  0.33672822  0.37121140  0.33900937     0.00660
C228        C  0.34083431  0.39953162  0.34218431     0.06680
C229        C  0.31485325  0.41035493  0.31193811    -0.06420
H230        H  0.35262227  0.35569072  0.35714707     0.07350
H231        H  0.30961101  0.43197217  0.30517016     0.08550
Cu232      Cu  0.29015034  0.32712384  0.28889517     0.44170
Cu233      Cu  0.25170774  0.39171304  0.24712399     0.41990
Cu234      Cu  0.21253481  0.32627633  0.21091334     0.43880
N235        N  0.26632681  0.29114192  0.26360975    -0.35070
N236        N  0.23796543  0.29089447  0.23485828    -0.29320
C237        C  0.22866201  0.26458445  0.22546316    -0.05420
C238        C  0.25228282  0.24746112  0.24954318     0.06790
C239        C  0.27584928  0.26496388  0.27332703     0.00590
H240        H  0.20613210  0.25844159  0.20319477     0.08240
H241        H  0.29805818  0.25916362  0.29633522     0.07320
N242        N  0.19100330  0.36424968  0.19286863    -0.36520
N243        N  0.20541364  0.38815789  0.20560236    -0.28700
C244        C  0.18529580  0.40870325  0.18748875    -0.03940
C245        C  0.15663096  0.39717741  0.16266792     0.04670
C246        C  0.16131987  0.36893737  0.16650778     0.02760
H247        H  0.19115601  0.43046041  0.19192760     0.07870
H248        H  0.14487909  0.35293260  0.15036671     0.06700
C249        C  0.42293398  0.44320042  0.42141754    -0.06520
C250        C  0.40110203  0.42380789  0.44513489    -0.17640
C251        C  0.37349269  0.40998616  0.42069737     0.10680
C252        C  0.36781842  0.41491408  0.37076592    -0.06440
C253        C  0.38928019  0.43430853  0.34691739    -0.17680
C254        C  0.41657724  0.44848765  0.37146559     0.10710
S255        S  0.34554609  0.38723063  0.45586903    -0.32640
S256        S  0.44342881  0.47174581  0.33602413    -0.32650
H257        H  0.43015143  0.49521607  0.36043800     0.28720
H258        H  0.31375725  0.39307733  0.43051044     0.28720
H259        H  0.40498973  0.41974894  0.48348199     0.19310
H260        H  0.38519024  0.43806304  0.30849259     0.19310
C261        C  0.07931885  0.44031240  0.07554712    -0.06520
C262        C  0.06801088  0.41883001  0.10580953    -0.17640
C263        C  0.09236511  0.40471400  0.13538061     0.10680
C264        C  0.12907258  0.41197267  0.13424809    -0.06440
C265        C  0.14021840  0.43349443  0.10382390    -0.17680
C266        C  0.11589997  0.44742685  0.07407837     0.10710
S267        S  0.07446737  0.37890595  0.17562568    -0.32640
S268        S  0.13342603  0.47370862  0.03459489    -0.32650
H269        H  0.10702323  0.47135815  0.99840394     0.28720
H270        H  0.09806183  0.38475837  0.21419804     0.28720
H271        H  0.03982090  0.41359296  0.10751494     0.19310
H272        H  0.16830123  0.43902924  0.10220626     0.19310
C273        C  0.12574496  0.55517925  0.86494324    -0.06520
C274        C  0.13028656  0.55492585  0.91548251    -0.17640
C275        C  0.10551011  0.54180689  0.94569498     0.10680
C276        C  0.07601988  0.52768520  0.92494032    -0.06440
C277        C  0.07140241  0.52827462  0.87422022    -0.17680
C278        C  0.09542529  0.54236485  0.84418775     0.10710
S279        S  0.11391717  0.54284865  0.01004128    -0.32640
S280        S  0.08543275  0.54364199  0.78003988    -0.32650
H281        H  0.10324212  0.56857577  0.77042412     0.28720
H282        H  0.08303890  0.55854670  0.01978878     0.28720
H283        H  0.15336768  0.56504175  0.93152860     0.19310
H284        H  0.04844233  0.51814189  0.85789541     0.19310
C285        C  0.36674466  0.55083881  0.62980481    -0.06520
C286        C  0.38431027  0.52877330  0.65233789    -0.17640
C287        C  0.41273778  0.51495344  0.62957507     0.10680
C288        C  0.42332123  0.52257184  0.58190837    -0.06440
C289        C  0.40530380  0.54458611  0.55940474    -0.17680
C290        C  0.37722555  0.55856218  0.58245883     0.10710
S291        S  0.43518710  0.48892124  0.66479243    -0.32640
S292        S  0.35475903  0.58505245  0.54821795    -0.32650
H293        H  0.32040939  0.57914269  0.56636266     0.28720
H294        H  0.46960954  0.49933447  0.65491734     0.28720
H295        H  0.37675103  0.52293859  0.68892054     0.19310
H296        H  0.41249114  0.55067065  0.52283345     0.19310
C297        C  0.63675578  0.41563952  0.37440444    -0.06520
C298        C  0.60948304  0.42883862  0.34840472    -0.17640
C299        C  0.58075936  0.44145140  0.37250116     0.10680
C300        C  0.57982677  0.44176415  0.42390201    -0.06440
C301        C  0.60721295  0.42849853  0.44978956    -0.17680
C302        C  0.63572349  0.41567313  0.42567499     0.10710
S303        S  0.54499220  0.45494521  0.33563753    -0.32640
S304        S  0.67040668  0.40039758  0.46236384    -0.32650
H305        H  0.69855539  0.40543514  0.42965283     0.28720
H306        H  0.51748382  0.44641300  0.36711558     0.28720
H307        H  0.60983100  0.42833548  0.30899473     0.19310
H308        H  0.60686729  0.42867869  0.48919709     0.19310
C309        C  0.87440399  0.41272387  0.13726686    -0.06520
C310        C  0.86802322  0.41717798  0.08775797    -0.17640
C311        C  0.89295770  0.43102065  0.05877160     0.10680
C312        C  0.92504825  0.44094872  0.08003332    -0.06440
C313        C  0.93155552  0.43607012  0.12952299    -0.17680
C314        C  0.90681477  0.42185954  0.15823805     0.10710
S315        S  0.88156956  0.43524962  0.99543166    -0.32640
S316        S  0.91908939  0.41508639  0.22053635    -0.32650
H317        H  0.88435207  0.41291724  0.23954137     0.28720
H318        H  0.90190468  0.45901662  0.98685868     0.28720
H319        H  0.84329335  0.40984734  0.07157639     0.19310
H320        H  0.95640940  0.44306687  0.14581107     0.19310
C321        C  0.87146570  0.55395433  0.87397377    -0.06520
C322        C  0.86105105  0.54026562  0.91643852    -0.17640
C323        C  0.88625981  0.52737029  0.94640063     0.10680
C324        C  0.92270446  0.52710800  0.93236379    -0.06440
C325        C  0.93310176  0.54088116  0.88992665    -0.17680
C326        C  0.90799915  0.55449053  0.86086552     0.10710
S327        S  0.86946135  0.51154508  0.00113205    -0.32640
S328        S  0.92419207  0.57153452  0.80704027    -0.32650
H329        H  0.89355672  0.56658258  0.77858890     0.28720
H330        H  0.90185308  0.50924075  0.02641850     0.28720
H331        H  0.83307925  0.54016272  0.92690588     0.19310
H332        H  0.96100468  0.54078319  0.87907968     0.19310
C333        C  0.62901853  0.54989557  0.64225892    -0.06520
C334        C  0.63885323  0.52570215  0.61711977    -0.17640
C335        C  0.61429700  0.51149107  0.58767178     0.10680
C336        C  0.57894711  0.52142733  0.58352873    -0.06440
C337        C  0.56889583  0.54531863  0.60893536    -0.17520
C338        C  0.59320527  0.55931040  0.63893506     0.10710
S339        S  0.62990506  0.48134546  0.55522312    -0.32640
S340        S  0.57598052  0.58779916  0.67431812    -0.32650
H341        H  0.59674948  0.58215166  0.71576139     0.28720
H342        H  0.60787182  0.48482296  0.51427974     0.28720
H343        H  0.66615065  0.51825850  0.61920720     0.19310
H344        H  0.54152988  0.55263242  0.60657024     0.19310
C345        C  0.42247491  0.94285206  0.57845223    -0.06520
C346        C  0.43120216  0.91710598  0.59803555    -0.17640
C347        C  0.40691508  0.90274901  0.62721381     0.10680
C348        C  0.37214201  0.91363024  0.63497975    -0.06440
C349        C  0.36373006  0.93965290  0.61561937    -0.17680
C350        C  0.38844885  0.95432153  0.58761154     0.10710
S351        S  0.42327019  0.87196690  0.65625257    -0.32640
S352        S  0.37455558  0.98704875  0.56306669    -0.32650
H353        H  0.39347461  0.98423958  0.51913502     0.28720
H354        H  0.40512147  0.87680142  0.70030875     0.28720
H355        H  0.45771170  0.90863067  0.59211651     0.19310
H356        H  0.33732727  0.94835942  0.62106714     0.19310
C357        C  0.57854830  0.94261942  0.57681220    -0.06520
C358        C  0.58190431  0.91398717  0.57021434    -0.17640
C359        C  0.60812049  0.89875815  0.59449567     0.10680
C360        C  0.63047646  0.91194779  0.62934464    -0.06440
C361        C  0.62714542  0.94070756  0.63562586    -0.17680
C362        C  0.60254617  0.95618679  0.60877533     0.10710
S363        S  0.61288959  0.86329615  0.57554885    -0.32640
S364        S  0.60493249  0.99322557  0.61497086    -0.32650
H365        H  0.60180608  0.99816066  0.56474560     0.28720
H366        H  0.65053167  0.86429409  0.57433858     0.28720
H367        H  0.56443923  0.90331790  0.54485413     0.19310
H368        H  0.64421675  0.95153592  0.66116827     0.19310
C369        C  0.42304238  0.02414536  0.42175459    -0.06520
C370        C  0.39352295  0.03524268  0.44659473    -0.17640
C371        C  0.36571582  0.04816417  0.42149494     0.10680
C372        C  0.36785308  0.05073956  0.37055258    -0.06440
C373        C  0.39743694  0.03991066  0.34564076    -0.17680
C374        C  0.42527337  0.02695534  0.37073227     0.10710
S375        S  0.32802458  0.06050386  0.45635903    -0.32640
S376        S  0.46379861  0.01604047  0.33606809    -0.32650
H377        H  0.48907225  0.02260851  0.37227787     0.28720
H378        H  0.30220770  0.05623231  0.41988384     0.28720
H379        H  0.39168989  0.03326676  0.48573352     0.19310
H380        H  0.39936828  0.04234038  0.30656714     0.19310
C381        C  0.92246789  0.94404366  0.91962109    -0.06520
C382        C  0.91555833  0.91619980  0.93022268    -0.17640
C383        C  0.88923970  0.90117545  0.90551876     0.10680
C384        C  0.87055188  0.91346578  0.86637608    -0.06440
C385        C  0.87726646  0.94138020  0.85595999    -0.17680
C386        C  0.90194664  0.95693891  0.88289275     0.10710
S387        S  0.87930749  0.86739177  0.92908335    -0.32640
S388        S  0.90423928  0.99332471  0.86995666    -0.32650
H389        H  0.90251536  0.00128237  0.91922961     0.28720
H390        H  0.84199773  0.87030902  0.92422842     0.28720
H391        H  0.93017424  0.90604302  0.95907732     0.19310
H392        H  0.86283171  0.95144581  0.82688397     0.19310
C393        C  0.13311581  0.05076881  0.13025349    -0.06520
C394        C  0.09770458  0.06033744  0.13317958    -0.17640
C395        C  0.06983969  0.04645235  0.10955057     0.10680
C396        C  0.07741104  0.02261956  0.08178808    -0.06440
C397        C  0.11263295  0.01290290  0.07882562    -0.17680
C398        C  0.14063754  0.02691994  0.10204972     0.10710
S399        S  0.02519525  0.05991182  0.11680192    -0.32640
S400        S  0.18538285  0.01443918  0.09107488    -0.32650
H401        H  0.20105284  0.04081497  0.08880590     0.28720
H402        H  0.00780677  0.03419798  0.11432659     0.28720
H403        H  0.09153332  0.07846448  0.15489603     0.19310
H404        H  0.11854607  0.99489100  0.05664642     0.19310
C405        C  0.07845445  0.94301250  0.92256886    -0.06520
C406        C  0.11113742  0.95638222  0.91448984    -0.17640
C407        C  0.13951180  0.94284168  0.89124048     0.10680
C408        C  0.13462367  0.91561285  0.87314758    -0.06440
C409        C  0.10159929  0.90242385  0.88115141    -0.17680
C410        C  0.07362708  0.91574739  0.90557135     0.10710
S411        S  0.18174422  0.96081420  0.88993938    -0.32640
S412        S  0.03205128  0.89718818  0.91241809    -0.32650
H413        H  0.00974811  0.92040702  0.90775960     0.28720
H414        H  0.20235328  0.93719563  0.89982008     0.28720
H415        H  0.11514651  0.97713657  0.92847959     0.19310
H416        H  0.09710539  0.88172218  0.86733045     0.19310
C417        C  0.63284377  0.05262713  0.37167010    -0.06520
C418        C  0.61880700  0.02816677  0.35198668    -0.17640
C419        C  0.59235283  0.01310078  0.37620482     0.10680
C420        C  0.57869434  0.02288165  0.42136717    -0.06440
C421        C  0.59302472  0.04744661  0.44088715    -0.17680
C422        C  0.62013888  0.06203403  0.41720052     0.10710
S423        S  0.57753262  0.98181849  0.34672670    -0.32640
S424        S  0.63863037  0.09153511  0.44863665    -0.32650
H425        H  0.67415953  0.08645858  0.43416021     0.28720
H426        H  0.58812871  0.96508427  0.38585143     0.28720
H427        H  0.62844849  0.02072515  0.31712751     0.19310
H428        H  0.58365448  0.05521483  0.47563554     0.19310
C429        C  0.92164490  0.02397320  0.07621856    -0.06520
C430        C  0.92758443  0.05158540  0.08907902    -0.17640
C431        C  0.90346239  0.06600496  0.11854848     0.10680
C432        C  0.87090768  0.05328694  0.13263364    -0.06440
C433        C  0.86489150  0.02559641  0.11913698    -0.17680
C434        C  0.88987375  0.01083632  0.09135820     0.10710
S435        S  0.91785458  0.09940990  0.14017101    -0.32640
S436        S  0.87891736  0.97577998  0.07453361    -0.32650
H437        H  0.89505445  0.97670871  0.02836439     0.28720
H438        H  0.90376177  0.09598530  0.18719053     0.28720
H439        H  0.95210804  0.06164897  0.07792738     0.19310
H440        H  0.84013957  0.01548071  0.12919619     0.19310
loop_ 
_geom_bond_atom_site_label_1 
_geom_bond_atom_site_label_2 
_geom_bond_distance 
_geom_bond_site_symmetry_2 
_ccdc_geom_bond_type 
N1            N2   1.322       .  A
N1            C5   1.345       .  A
N1           Cu9   2.075       .  S
N2            C3   1.344       .  A
N2           Cu8   2.070       .  S
C3            C4   1.384       .  A
C3            H6   1.081       .  S
C4            C5   1.385       .  A
C4          C417   1.480       .  S
C5            H7   1.082       .  S
Cu8          N11   2.069       .  S
Cu9          N19   2.075       .  S
Cu10         N12   2.069       .  S
Cu10         N18   2.069       .  S
N11          N12   1.321       .  A
N11          C15   1.345       .  A
N12          C13   1.345       .  A
C13          C14   1.383       .  A
C13          H16   1.082       .  S
C14          C15   1.383       .  A
C14         C162   1.470       .  S
C15          H17   1.081       .  S
N18          N19   1.321       .  A
N18          C22   1.342       .  A
N19          C20   1.345       .  A
C20          C21   1.388       .  A
C20          H23   1.083       .  S
C21          C22   1.386       .  A
C21         C432   1.486       .  S
C22          H24   1.081       .  S
O25         Cu33   2.007       .  S
O25          C35   1.278   1_565  A
O26         Cu33   2.006   1_456  S
O26          C36   1.277       .  A
O27         Cu33   2.008   1_455  S
O27          C37   1.277   1_565  A
O28         Cu33   1.995   1_556  S
O28          C38   1.277       .  A
O29         Cu34   2.011   1_665  S
O29          C38   1.278       .  A
O30         Cu34   2.004   1_554  S
O30          C37   1.277       .  A
O31         Cu34   2.005   1_565  S
O31          C36   1.277       .  A
O32         Cu34   2.002   1_654  S
O32          C35   1.277       .  A
Cu33        Cu34   2.375   1_664  S
C35         C429   1.471       .  S
C36         C405   1.470       .  S
C37         C396   1.466       .  S
C38         C381   1.487       .  S
N39          N40   1.321       .  A
N39          C43   1.343       .  A
N39         Cu47   2.065       .  S
N40          C41   1.344       .  A
N40         Cu46   2.072       .  S
C41          C42   1.384       .  A
C41          H44   1.082       .  S
C42          C43   1.383       .  A
C42         C393   1.478       .  S
C43          H45   1.082       .  S
Cu46         N49   2.072       .  S
Cu47         N57   2.065       .  S
Cu48         N50   2.073       .  S
Cu48         N56   2.073       .  S
N49          N50   1.322       .  A
N49          C53   1.345       .  A
N50          C51   1.345       .  A
C51          C52   1.383       .  A
C51          H54   1.081       .  S
C52          C53   1.383       .  A
C52         C238   1.471       .  S
C53          H55   1.081       .  S
N56          N57   1.323       .  A
N56          C60   1.344       .  A
N57          C58   1.344       .  A
C58          C59   1.379       .  A
C58          H61   1.082       .  S
C59          C60   1.380       .  A
C59         C372   1.467       .  S
C60          H62   1.082       .  S
N63          N64   1.320       .  A
N63          C67   1.344       .  A
N63         Cu71   2.073       .  S
N64          C65   1.342       .  A
N64         Cu70   2.069       .  S
C65          C66   1.387       .  A
C65          H68   1.080       .  S
C66          C67   1.389       .  A
C66         C384   1.489       .  S
C67          H69   1.082       .  S
Cu70         N73   2.070       .  S
Cu71         N81   2.073       .  S
Cu72         N74   2.074       .  S
Cu72         N80   2.073       .  S
N73          N74   1.322       .  A
N73          C77   1.345       .  A
N74          C75   1.345       .  A
C75          C76   1.384       .  A
C75          H78   1.081       .  S
C76          C77   1.383       .  A
C76         C138   1.471       .  S
C77          H79   1.081       .  S
N80          N81   1.320       .  A
N80          C84   1.343       .  A
N81          C82   1.344       .  A
C82          C83   1.391       .  A
C82          H85   1.082       .  S
C83          C84   1.390       .  A
C83         C360   1.494       .  S
C84          H86   1.079       .  S
O87         Cu95   2.002       .  S
O87          C97   1.277       .  A
O88         Cu95   2.008   1_565  S
O88          C98   1.277       .  A
O89         Cu95   2.012       .  S
O89          C99   1.280       .  A
O90         Cu95   2.008   1_565  S
O90         C100   1.277       .  A
O91         Cu96   2.006       .  S
O91         C100   1.277       .  A
O92         Cu96   1.999       .  S
O92          C99   1.275   1_565  A
O93         Cu96   2.003       .  S
O93          C98   1.278       .  A
O94         Cu96   2.006       .  S
O94          C97   1.277   1_565  A
Cu95        Cu96   2.371   1_545  S
C97         C369   1.471       .  S
C98         C357   1.484       .  S
C99         C420   1.492       .  S
C100        C345   1.469       .  S
N101        N102   1.321       .  A
N101        C105   1.344       .  A
N101       Cu109   2.070       .  S
N102        C103   1.344       .  A
N102       Cu108   2.075       .  S
C103        C104   1.387       .  A
C103        H106   1.082       .  S
C104        C105   1.387       .  A
C104        C408   1.487       .  S
C105        H107   1.081       .  S
Cu108       N111   2.075       .  S
Cu109       N119   2.070       .  S
Cu110       N112   2.071       .  S
Cu110       N118   2.071       .  S
N111        N112   1.322       .  A
N111        C115   1.345       .  A
N112        C113   1.345       .  A
C113        C114   1.382       .  A
C113        H116   1.081       .  S
C114        C115   1.383       .  A
C114        C186   1.471       .  S
C115        H117   1.082       .  S
N118        N119   1.321       .  A
N118        C122   1.344       .  A
N119        C120   1.344       .  A
C120        C121   1.386       .  A
C120        H123   1.082       .  S
C121        C122   1.387       .  A
C121        C348   1.485       .  S
C122        H124   1.081       .  S
N125        N126   1.322       .  A
N125        C129   1.347       .  A
N125       Cu133   2.081       .  S
N126        C127   1.344       .  A
N126       Cu132   2.072       .  S
C127        C128   1.385       .  A
C127        H130   1.082       .  S
C128        C129   1.386       .  A
C128        C333   1.484       .  S
C129        H131   1.083       .  S
Cu132       N135   2.072       .  S
Cu133       N143   2.081       .  S
Cu134       N136   2.071       .  S
Cu134       N142   2.071       .  S
N135        N136   1.321       .  A
N135        C139   1.345       .  A
N136        C137   1.345       .  A
C137        C138   1.383       .  A
C137        H140   1.081       .  S
C138        C139   1.383       .  A
C139        H141   1.081       .  S
N142        N143   1.323       .  A
N142        C146   1.345       .  A
N143        C144   1.346       .  A
C144        C145   1.383       .  A
C144        H147   1.082       .  S
C145        C146   1.381       .  A
C145        C321   1.474       .  S
C146        H148   1.082       .  S
N149        N150   1.323       .  A
N149        C153   1.346       .  A
N149       Cu157   2.076       .  S
N150        C151   1.344       .  A
N150       Cu156   2.073       .  S
C151        C152   1.381       .  A
C151        H154   1.083       .  S
C152        C153   1.381       .  A
C152        C297   1.471       .  S
C153        H155   1.083       .  S
Cu156       N159   2.073       .  S
Cu157       N167   2.076       .  S
Cu158       N160   2.070       .  S
Cu158       N166   2.070       .  S
N159        N160   1.322       .  A
N159        C163   1.345       .  A
N160        C161   1.344       .  A
C161        C162   1.383       .  A
C161        H164   1.081       .  S
C162        C163   1.383       .  A
C163        H165   1.082       .  S
N166        N167   1.323       .  A
N166        C170   1.345       .  A
N167        C168   1.345       .  A
C168        C169   1.382       .  A
C168        H171   1.082       .  S
C169        C170   1.379       .  A
C169        C309   1.469       .  S
C170        H172   1.082       .  S
N173        N174   1.323       .  A
N173        C177   1.347       .  A
N173       Cu181   2.083       .  S
N174        C175   1.343       .  A
N174       Cu180   2.067       .  S
C175        C176   1.378       .  A
C175        H178   1.082       .  S
C176        C177   1.383       .  A
C176        C273   1.470       .  S
C177        H179   1.082       .  S
Cu180       N183   2.067       .  S
Cu181       N191   2.083       .  S
Cu182       N184   2.073       .  S
Cu182       N190   2.073       .  S
N183        N184   1.321       .  A
N183        C187   1.344       .  A
N184        C185   1.345       .  A
C185        C186   1.384       .  A
C185        H188   1.082       .  S
C186        C187   1.382       .  A
C187        H189   1.081       .  S
N190        N191   1.323       .  A
N190        C194   1.344       .  A
N191        C192   1.347       .  A
C192        C193   1.385       .  A
C192        H195   1.083       .  S
C193        C194   1.383       .  A
C193        C285   1.480       .  S
C194        H196   1.082       .  S
O197       Cu205   2.015   1_656  S
O197        C207   1.278       .  A
O198       Cu205   2.009       .  S
O198        C208   1.277       .  A
O199       Cu205   2.010   1_556  S
O199        C209   1.277       .  A
O200       Cu205   2.010   1_655  S
O200        C210   1.278       .  A
O201       Cu206   2.006   1_654  S
O201        C210   1.277       .  A
O202       Cu206   2.010       .  S
O202        C209   1.278       .  A
O203       Cu206   2.015   1_554  S
O203        C208   1.278       .  A
O204       Cu206   2.010   1_655  S
O204        C207   1.277       .  A
Cu205      Cu206   2.375   1_554  S
C207        C324   1.472       .  S
C208        C261   1.470       .  S
C209        C276   1.481       .  S
C210        C312   1.475       .  S
O211       Cu219   2.004       .  S
O211        C221   1.277       .  A
O212       Cu219   2.010       .  S
O212        C222   1.277       .  A
O213       Cu219   2.013       .  S
O213        C223   1.279       .  A
O214       Cu219   2.014       .  S
O214        C224   1.278       .  A
O215       Cu220   2.006       .  S
O215        C224   1.276       .  A
O216       Cu220   2.007       .  S
O216        C223   1.276       .  A
O217       Cu220   2.009       .  S
O217        C222   1.279       .  A
O218       Cu220   2.012       .  S
O218        C221   1.278       .  A
Cu219      Cu220   2.370       .  S
C221        C300   1.477       .  S
C222        C288   1.492       .  S
C223        C249   1.489       .  S
C224        C336   1.470       .  S
N225        N226   1.323       .  A
N225        C229   1.346       .  A
N225       Cu233   2.078       .  S
N226        C227   1.344       .  A
N226       Cu232   2.073       .  S
C227        C228   1.382       .  A
C227        H230   1.082       .  S
C228        C229   1.383       .  A
C228        C252   1.477       .  S
C229        H231   1.083       .  S
Cu232       N235   2.073       .  S
Cu233       N243   2.078       .  S
Cu234       N236   2.071       .  S
Cu234       N242   2.071       .  S
N235        N236   1.322       .  A
N235        C239   1.345       .  A
N236        C237   1.344       .  A
C237        C238   1.383       .  A
C237        H240   1.081       .  S
C238        C239   1.383       .  A
C239        H241   1.081       .  S
N242        N243   1.322       .  A
N242        C246   1.345       .  A
N243        C244   1.345       .  A
C244        C245   1.385       .  A
C244        H247   1.082       .  S
C245        C246   1.384       .  A
C245        C264   1.480       .  S
C246        H248   1.082       .  S
C249        C250   1.407       .  A
C249        C254   1.419       .  A
C250        C251   1.399       .  A
C250        H259   1.084       .  S
C251        C252   1.411       .  A
C251        S255   1.804       .  S
C252        C253   1.401       .  A
C253        C254   1.400       .  A
C253        H260   1.084       .  S
C254        S256   1.799       .  S
S255        H258   1.407       .  S
S256        H257   1.407       .  S
C261        C262   1.402       .  A
C261        C266   1.410       .  A
C262        C263   1.401       .  A
C262        H271   1.084       .  S
C263        C264   1.416       .  A
C263        S267   1.803       .  S
C264        C265   1.404       .  A
C265        C266   1.399       .  A
C265        H272   1.083       .  S
C266        S268   1.801       .  S
S267        H270   1.407       .  S
S268        H269   1.405   1_554  S
C273        C274   1.401       .  A
C273        C278   1.410       .  A
C274        C275   1.399       .  A
C274        H283   1.084       .  S
C275        C276   1.415       .  A
C275        S279   1.798   1_556  S
C276        C277   1.406       .  A
C277        C278   1.400       .  A
C277        H284   1.084       .  S
C278        S280   1.805       .  S
S279        H282   1.407       .  S
S280        H281   1.405       .  S
C285        C286   1.402       .  A
C285        C290   1.412       .  A
C286        C287   1.401       .  A
C286        H295   1.084       .  S
C287        C288   1.420       .  A
C287        S291   1.802       .  S
C288        C289   1.408       .  A
C289        C290   1.399       .  A
C289        H296   1.084       .  S
C290        S292   1.803       .  S
S291        H294   1.408       .  S
S292        H293   1.407       .  S
C297        C298   1.401       .  A
C297        C302   1.411       .  A
C298        C299   1.400       .  A
C298        H307   1.084       .  S
C299        C300   1.414       .  A
C299        S303   1.802       .  S
C300        C301   1.404       .  A
C301        C302   1.398       .  A
C301        H308   1.084       .  S
C302        S304   1.804       .  S
S303        H306   1.407       .  S
S304        H305   1.406       .  S
C309        C310   1.400       .  A
C309        C314   1.411       .  A
C310        C311   1.400       .  A
C310        H319   1.084       .  S
C311        C312   1.416       .  A
C311        S315   1.806   1_554  S
C312        C313   1.404       .  A
C313        C314   1.399       .  A
C313        H320   1.084       .  S
C314        S316   1.806       .  S
S315        H318   1.400       .  S
S316        H317   1.403       .  S
C321        C322   1.402       .  A
C321        C326   1.412       .  A
C322        C323   1.401       .  A
C322        H331   1.084       .  S
C323        C324   1.415       .  A
C323        S327   1.806   1_556  S
C324        C325   1.403       .  A
C325        C326   1.400       .  A
C325        H332   1.084       .  S
C326        S328   1.804       .  S
S327        H330   1.400       .  S
S328        H329   1.406       .  S
C333        C334   1.406       .  A
C333        C338   1.416       .  A
C334        C335   1.401       .  A
C334        H343   1.083       .  S
C335        C336   1.410       .  A
C335        S339   1.804       .  S
C336        C337   1.400       .  A
C337        C338   1.399       .  A
C337        H344   1.084       .  S
C338        S340   1.803       .  S
S339        H342   1.406       .  S
S340        H341   1.407       .  S
C345        C346   1.400       .  A
C345        C350   1.409       .  A
C346        C347   1.399       .  A
C346        H355   1.084       .  S
C347        C348   1.418       .  A
C347        S351   1.802       .  S
C348        C349   1.407       .  A
C349        C350   1.399       .  A
C349        H356   1.083       .  S
C350        S352   1.803       .  S
S351        H354   1.407       .  S
S352        H353   1.406       .  S
C357        C358   1.403       .  A
C357        C362   1.414       .  A
C358        C359   1.398       .  A
C358        H367   1.084       .  S
C359        C360   1.420       .  A
C359        S363   1.801       .  S
C360        C361   1.408       .  A
C361        C362   1.399       .  A
C361        H368   1.082       .  S
C362        S364   1.803       .  S
S363        H366   1.407       .  S
S364        H365   1.408       .  S
C369        C370   1.403       .  A
C369        C374   1.413       .  A
C370        C371   1.397       .  A
C370        H379   1.084       .  S
C371        C372   1.410       .  A
C371        S375   1.804       .  S
C372        C373   1.401       .  A
C373        C374   1.399       .  A
C373        H380   1.084       .  S
C374        S376   1.804       .  S
S375        H378   1.406       .  S
S376        H377   1.407       .  S
C381        C382   1.405       .  A
C381        C386   1.416       .  A
C382        C383   1.397       .  A
C382        H391   1.084       .  S
C383        C384   1.417       .  A
C383        S387   1.802       .  S
C384        C385   1.406       .  A
C385        C386   1.400       .  A
C385        H392   1.083       .  S
C386        S388   1.802       .  S
S387        H390   1.407       .  S
S388        H389   1.408   1_565  S
C393        C394   1.404       .  A
C393        C398   1.416       .  A
C394        C395   1.397       .  A
C394        H403   1.084       .  S
C395        C396   1.409       .  A
C395        S399   1.801       .  S
C396        C397   1.400       .  A
C397        C398   1.399       .  A
C397        H404   1.084   1_545  S
C398        S400   1.802       .  S
S399        H402   1.406       .  S
S400        H401   1.407       .  S
C405        C406   1.400       .  A
C405        C410   1.410       .  A
C406        C407   1.399       .  A
C406        H415   1.085       .  S
C407        C408   1.419       .  A
C407        S411   1.802       .  S
C408        C409   1.407       .  A
C409        C410   1.398       .  A
C409        H416   1.083       .  S
C410        S412   1.804       .  S
S411        H414   1.407       .  S
S412        H413   1.406       .  S
C417        C418   1.401       .  A
C417        C422   1.412       .  A
C418        C419   1.399       .  A
C418        H427   1.084       .  S
C419        C420   1.422       .  A
C419        S423   1.801   1_545  S
C420        C421   1.408       .  A
C421        C422   1.398       .  A
C421        H428   1.083       .  S
C422        S424   1.803       .  S
S423        H426   1.408       .  S
S424        H425   1.407       .  S
C429        C430   1.399       .  A
C429        C434   1.410       .  A
C430        C431   1.397       .  A
C430        H439   1.083       .  S
C431        C432   1.418       .  A
C431        S435   1.802       .  S
C432        C433   1.408       .  A
C433        C434   1.400       .  A
C433        H440   1.083       .  S
C434        S436   1.804   1_545  S
S435        H438   1.407       .  S
S436        H437   1.407       .  S
