geometry optimzed in LAMMPS
_audit_creation_date              2020-11-30 
_audit_creation_method            'lammps2cif' 
_symmetry_space_group_name_H-M    'P1' 
_symmetry_Int_Tables_number       1 
_symmetry_cell_setting            triclinic 
loop_ 
_symmetry_equiv_pos_as_xyz 
  x,y,z 
_cell_length_a                    29.97064864 
_cell_length_b                    31.079548964066483 
_cell_length_c                    30.13811643282688 
_cell_angle_alpha                 90.04048001994363 
_cell_angle_beta                  87.45795279871655 
_cell_angle_gamma                 89.1143632785444 
loop_ 
_atom_site_label 
_atom_site_type_symbol 
_atom_site_fract_x 
_atom_site_fract_y 
_atom_site_fract_z 
_atom_site_charge 
N1          N  0.51216075  0.08428218  0.44174981    -0.37100
N2          N  0.44456574  0.09818044  0.50884266    -0.57700
N3          N  0.50738337  0.08158983  0.57541671    -0.37100
N4          N  0.57717755  0.07033395  0.50718878    -0.57700
C5          C  0.47549892  0.08003072  0.41804263     0.26500
C6          C  0.54626290  0.06744526  0.41680256     0.26500
C7          C  0.46903006  0.07102740  0.59775249     0.26500
C8          C  0.54141362  0.06695325  0.59921660     0.26500
C9          C  0.42107393  0.10950949  0.47389793     0.35100
C10         C  0.41721304  0.10283674  0.54480554     0.35100
C11         C  0.60495859  0.07272805  0.47095461     0.35100
C12         C  0.60276354  0.07517984  0.54225490     0.35100
C13         C  0.48646899  0.06150316  0.37716037    -0.22400
C14         C  0.53137848  0.05435489  0.37604980    -0.22400
C15         C  0.47922769  0.05091544  0.63734713    -0.22400
C16         C  0.52503314  0.04865751  0.63836916    -0.22400
C17         C  0.37891663  0.12441988  0.48788654    -0.23400
C18         C  0.37634502  0.11994695  0.53302106    -0.23400
C19         C  0.64857090  0.07790139  0.48259240    -0.23400
C20         C  0.64735144  0.07916583  0.52798108    -0.23400
C21         C  0.43267118  0.09423610  0.43137099    -0.18800
C22         C  0.59112252  0.06910116  0.42761353    -0.18800
C23         C  0.58673831  0.07144909  0.58668967    -0.18800
C24         C  0.42541089  0.08122484  0.58423386    -0.18800
H25         H  0.46478241  0.05555707  0.35010602     0.14100
H26         H  0.55080812  0.04328839  0.34726938     0.14100
H27         H  0.45639889  0.04031699  0.66372457     0.14100
H28         H  0.54399652  0.03488356  0.66474685     0.14100
H29         H  0.35134069  0.13355279  0.46776796     0.12400
H30         H  0.34647460  0.12562757  0.55369010     0.12400
H31         H  0.67811676  0.07993300  0.46073948     0.12400
H32         H  0.67642337  0.08160956  0.54769738     0.12400
H33         H  0.51497406  0.10254320  0.47035852     0.25700
H34         H  0.51091433  0.10113613  0.54757658     0.25700
N35         N  0.11082588  0.51891135  0.45163535    -0.37100
N36         N  0.10717688  0.43204037  0.48258775    -0.57700
N37         N  0.10700955  0.46609274  0.57180980    -0.37100
N38         N  0.11318746  0.55476054  0.53895101    -0.57700
C39         C  0.12173241  0.49605061  0.41484876     0.26500
C40         C  0.12647237  0.55871193  0.44476808     0.26500
C41         C  0.11154362  0.42334712  0.58017902     0.26500
C42         C  0.11281652  0.48769994  0.61016756     0.26500
C43         C  0.09653140  0.42568322  0.44016020     0.35100
C44         C  0.09675371  0.39568374  0.50459699     0.35100
C45         C  0.10178582  0.59023922  0.51567182     0.35100
C46         C  0.10109108  0.56261021  0.58181786     0.35100
C47         C  0.14599319  0.52058253  0.38453206    -0.22400
C48         C  0.14985196  0.56026139  0.40387564    -0.22400
C49         C  0.12068331  0.41791038  0.62463245    -0.22400
C50         C  0.12149605  0.45838589  0.64344839    -0.22400
C51         C  0.08081538  0.38437919  0.43471722    -0.23400
C52         C  0.08109187  0.36524781  0.47567485    -0.23400
C53         C  0.08389400  0.62165802  0.54393195    -0.23400
C54         C  0.08391910  0.60435904  0.58605971    -0.23400
C55         C  0.10363766  0.45629057  0.40631717    -0.18800
C56         C  0.10941497  0.59408694  0.46934263    -0.18800
C57         C  0.10520616  0.53251881  0.61691184    -0.18800
C58         C  0.10261971  0.38933741  0.55011630    -0.18800
H59         H  0.15826936  0.51124708  0.35154820     0.14100
H60         H  0.16651065  0.58735026  0.38846110     0.14100
H61         H  0.12469505  0.38793992  0.64231477     0.14100
H62         H  0.12634799  0.46533929  0.67808610     0.14100
H63         H  0.07123035  0.36903650  0.40452171     0.12400
H64         H  0.07095945  0.33268667  0.48318911     0.12400
H65         H  0.07244505  0.65361316  0.53519502     0.12400
H66         H  0.07175798  0.62047196  0.61614638     0.12400
H67         H  0.08635302  0.51049388  0.47562776     0.25700
H68         H  0.09456361  0.47957799  0.54336759     0.25700
N69         N  0.49139874  0.92278965  0.44685917    -0.37100
N70         N  0.44874008  0.91400711  0.53337967    -0.57700
N71         N  0.53571790  0.90842972  0.57291866    -0.37100
N72         N  0.57865626  0.91987946  0.48560841    -0.57700
C73         C  0.44883397  0.93246287  0.43721789     0.26500
C74         C  0.51726759  0.93368670  0.41108993     0.26500
C75         C  0.50812804  0.91543554  0.60913536     0.26500
C76         C  0.57730312  0.91924244  0.58411844     0.26500
C77         C  0.41271623  0.90979367  0.50849499     0.35100
C78         C  0.43643904  0.90031445  0.57439738     0.35100
C79         C  0.59203287  0.92005085  0.44216096     0.35100
C80         C  0.61588676  0.91536997  0.50912303     0.35100
C81         C  0.44789795  0.94884889  0.39442891    -0.22400
C82         C  0.49098930  0.94961375  0.37797872    -0.22400
C83         C  0.53244055  0.92986021  0.64401511    -0.22400
C84         C  0.57603254  0.93206313  0.62838035    -0.22400
C85         C  0.37728856  0.89326522  0.53331142    -0.23400
C86         C  0.39229407  0.88689135  0.57497729    -0.23400
C87         C  0.63822002  0.91617255  0.43813966    -0.23400
C88         C  0.65331268  0.91303785  0.48053150    -0.23400
C89         C  0.41065153  0.92353248  0.46447964    -0.18800
C90         C  0.56365817  0.92761605  0.40637578    -0.18800
C91         C  0.61657353  0.91706793  0.55599913    -0.18800
C92         C  0.46191975  0.90727708  0.61205205    -0.18800
H93         H  0.41938209  0.95799401  0.37585613     0.14100
H94         H  0.50153887  0.96014021  0.34498558     0.14100
H95         H  0.52015164  0.93778379  0.67738122     0.14100
H96         H  0.60346402  0.94225822  0.64770972     0.14100
H97         H  0.34404790  0.88676880  0.52260626     0.12400
H98         H  0.37202253  0.87412405  0.60201271     0.12400
H99         H  0.65898442  0.91707384  0.40790437     0.12400
H100        H  0.68788307  0.91054436  0.48932473     0.12400
H101        H  0.50182517  0.90518365  0.47380675     0.25700
H102        H  0.52728328  0.89346449  0.54366170     0.25700
N103        N  0.90317125  0.42797293  0.51272409    -0.37100
N104        N  0.89101314  0.51027641  0.47168713    -0.57700
N105        N  0.89201865  0.55360797  0.55689483    -0.37100
N106        N  0.90196046  0.47031513  0.59830782    -0.57700
C107        C  0.91532629  0.41848707  0.47014892     0.26500
C108        C  0.92106924  0.39689197  0.53784499     0.26500
C109        C  0.90239287  0.58619360  0.52865466     0.26500
C110        C  0.90628803  0.56490767  0.59717755     0.26500
C111        C  0.88689834  0.48497081  0.43583871     0.35100
C112        C  0.88159834  0.55072386  0.45884338     0.35100
C113        C  0.90477622  0.42925075  0.61211537     0.35100
C114        C  0.89779866  0.49454415  0.63533568     0.35100
C115        C  0.94009939  0.38035699  0.46821879    -0.22400
C116        C  0.94365171  0.36666672  0.51103845    -0.22400
C117        C  0.92150799  0.61931826  0.55168272    -0.22400
C118        C  0.92374925  0.60601314  0.59493641    -0.22400
C119        C  0.87293719  0.50888469  0.40026399    -0.23400
C120        C  0.86955059  0.55065957  0.41475360    -0.23400
C121        C  0.90164020  0.42722861  0.65806405    -0.23400
C122        C  0.89682731  0.46872073  0.67286364    -0.23400
C123        C  0.90387232  0.44282492  0.43290926    -0.18800
C124        C  0.91698302  0.39454391  0.58427778    -0.18800
C125        C  0.90481952  0.53895164  0.63576711    -0.18800
C126        C  0.89448555  0.58714690  0.48280141    -0.18800
H127        H  0.95443245  0.36406938  0.43909034     0.14100
H128        H  0.96135981  0.33797107  0.52124675     0.14100
H129        H  0.93290285  0.64989544  0.53871498     0.14100
H130        H  0.93748770  0.62437673  0.62147523     0.14100
H131        H  0.86860228  0.49784777  0.36666751     0.12400
H132        H  0.86180529  0.57775542  0.39390942     0.12400
H133        H  0.90579674  0.39914868  0.67871355     0.12400
H134        H  0.89620147  0.47890855  0.70724855     0.12400
H135        H  0.88086489  0.45205889  0.52376236     0.25700
H136        H  0.87409455  0.52625204  0.54969719     0.25700
N137        N  0.43070206  0.49392772  0.11992257    -0.37100
N138        N  0.49937628  0.42714032  0.12426152    -0.57700
N139        N  0.56215319  0.49598944  0.11832679    -0.37100
N140        N  0.49144500  0.56126823  0.11936536    -0.57700
C141        C  0.41076813  0.45756172  0.13298427     0.26500
C142        C  0.40620808  0.52664103  0.13780792     0.26500
C143        C  0.58943906  0.46269775  0.12837243     0.26500
C144        C  0.58569379  0.53230464  0.12226907     0.26500
C145        C  0.46562243  0.40421138  0.10880526     0.35100
C146        C  0.53677887  0.40395616  0.11512451     0.35100
C147        C  0.45407987  0.58403954  0.11118931     0.35100
C148        C  0.52586199  0.58537888  0.10529498     0.35100
C149        C  0.37403287  0.46651744  0.16097680    -0.22400
C150        C  0.37132426  0.51050063  0.16451333    -0.22400
C151        C  0.63076273  0.47812550  0.13919232    -0.22400
C152        C  0.62840778  0.52221282  0.13529085    -0.22400
C153        C  0.48114687  0.36506946  0.09190202    -0.23400
C154        C  0.52654277  0.36488245  0.09591689    -0.23400
C155        C  0.46465363  0.62372320  0.09311582    -0.23400
C156        C  0.51045141  0.62451434  0.08913965    -0.23400
C157        C  0.42113306  0.41851909  0.11240162    -0.18800
C158        C  0.41130193  0.56908804  0.12291055    -0.18800
C159        C  0.57078367  0.57364801  0.11024946    -0.18800
C160        C  0.57993427  0.41889921  0.12188638    -0.18800
H161        H  0.35114647  0.44394220  0.17657257     0.14100
H162        H  0.34599768  0.52786814  0.18417286     0.14100
H163        H  0.66001337  0.45940208  0.14740796     0.14100
H164        H  0.65540251  0.54422331  0.14021220     0.14100
H165        H  0.46216731  0.33913002  0.07858233     0.12400
H166        H  0.54932943  0.33946473  0.08453596     0.12400
H167        H  0.44220567  0.64965769  0.08448472     0.12400
H168        H  0.53009517  0.65109116  0.07641599     0.12400
H169        H  0.45463340  0.49600562  0.09377106     0.25700
H170        H  0.53172627  0.49394503  0.10330673     0.25700
N171        N  0.51552270  0.43313223  0.92517922    -0.37100
N172        N  0.43128841  0.47753699  0.92983156    -0.57700
N173        N  0.47745838  0.55699184  0.94668613    -0.37100
N174        N  0.56185460  0.51156804  0.93799366    -0.57700
C175        C  0.48879913  0.40237403  0.91054360     0.26500
C176        C  0.55764627  0.42127696  0.91316173     0.26500
C177        C  0.43578173  0.57221486  0.94082990     0.26500
C178        C  0.50551163  0.59061605  0.94308119     0.26500
C179        C  0.41652527  0.43684699  0.93162479     0.35100
C180        C  0.39585323  0.50269055  0.94190804     0.35100
C181        C  0.59512083  0.48321331  0.94492548     0.35100
C182        C  0.57522369  0.54921674  0.95421642     0.35100
C183        C  0.51364037  0.37064667  0.88833577    -0.22400
C184        C  0.55740854  0.38271103  0.88964873    -0.22400
C185        C  0.43712161  0.61645398  0.93449094    -0.22400
C186        C  0.48135098  0.62799488  0.93543648    -0.22400
C187        C  0.37113080  0.43662631  0.94298740    -0.23400
C188        C  0.35805278  0.47835601  0.94947791    -0.23400
C189        C  0.63023149  0.50282842  0.96484996    -0.23400
C190        C  0.61767767  0.54490023  0.97054615    -0.23400
C191        C  0.44342992  0.40019971  0.92187649    -0.18800
C192        C  0.59522124  0.44060286  0.93045119    -0.18800
C193        C  0.55178669  0.58825211  0.94951196    -0.18800
C194        C  0.39657856  0.54751404  0.94471113    -0.18800
H195        H  0.50153544  0.34141490  0.87381930     0.14100
H196        H  0.58540864  0.36409783  0.87589011     0.14100
H197        H  0.40919590  0.63825852  0.93004605     0.14100
H198        H  0.49409001  0.66027822  0.93207718     0.14100
H199        H  0.34897544  0.40985950  0.94591925     0.12400
H200        H  0.32448064  0.48945864  0.95863193     0.12400
H201        H  0.66201584  0.48870079  0.97317991     0.12400
H202        H  0.63804770  0.56949136  0.98426064     0.12400
H203        H  0.50630459  0.45609278  0.94913582     0.25700
H204        H  0.48536155  0.52637020  0.95789241     0.25700
N205        N  0.01951406  0.56547215  0.09119298    -0.37100
N206        N  0.06243338  0.57178040  0.00401185    -0.57700
N207        N  0.97731425  0.55725440  0.96483788    -0.37100
N208        N  0.93386026  0.55421616  0.05248324    -0.57700
C209        C  0.05813877  0.58474570  0.10052163     0.26500
C210        C  0.99162046  0.57045498  0.12724186     0.26500
C211        C  0.00350682  0.56343577  0.92780863     0.26500
C212        C  0.93442368  0.56106377  0.95315858     0.26500
C213        C  0.09864309  0.57052438  0.02899655     0.35100
C214        C  0.07709675  0.56068684  0.96268779     0.35100
C215        C  0.92097747  0.54766018  0.09544822     0.35100
C216        C  0.89722469  0.54971285  0.02834542     0.35100
C217        C  0.05408472  0.60230628  0.14298172    -0.22400
C218        C  0.01243381  0.59276952  0.15994670    -0.22400
C219        C  0.97744947  0.57007841  0.89176086    -0.22400
C220        C  0.93400588  0.56828820  0.90751189    -0.22400
C221        C  0.13658744  0.55945172  0.00372093    -0.23400
C222        C  0.12292959  0.55287845  0.96182043    -0.23400
C223        C  0.87551787  0.53978203  0.09864003    -0.23400
C224        C  0.86054206  0.54089956  0.05620635    -0.23400
C225        C  0.09810199  0.58155527  0.07388954    -0.18800
C226        C  0.94834652  0.55421640  0.13199798    -0.18800
C227        C  0.89586123  0.55601357  0.98190078    -0.18800
C228        C  0.05032448  0.56111144  0.92526927    -0.18800
H229        H  0.07773695  0.62044432  0.16080391     0.14100
H230        H  0.99899661  0.60180667  0.19259826     0.14100
H231        H  0.98852207  0.57505297  0.85748805     0.14100
H232        H  0.90594899  0.57093808  0.88657739     0.14100
H233        H  0.17056216  0.55646241  0.01424268     0.12400
H234        H  0.14497433  0.54341693  0.93442253     0.12400
H235        H  0.85459696  0.53635993  0.12847454     0.12400
H236        H  0.82631666  0.53695554  0.04710442     0.12400
H237        H  0.01450946  0.54487613  0.06471219     0.25700
H238        H  0.98837335  0.54680135  0.99509212     0.25700
N239        N  0.58050888  0.06599796  0.03539494    -0.37100
N240        N  0.59396694  0.98187271  0.07132545    -0.57700
N241        N  0.59852651  0.94577707  0.98151885    -0.37100
N242        N  0.58358861  0.03125781  0.94591921    -0.57700
C243        C  0.57308686  0.07469393  0.07899480     0.26500
C244        C  0.56818175  0.10137673  0.01290302     0.26500
C245        C  0.59104526  0.91036129  0.00685539     0.26500
C246        C  0.58691784  0.93615488  0.93976797     0.26500
C247        C  0.59979358  0.00500448  0.10838186     0.35100
C248        C  0.60877645  0.94177732  0.07960875     0.35100
C249        C  0.58285718  0.07363795  0.93586281     0.35100
C250        C  0.58946526  0.00966658  0.90707302     0.35100
C251        C  0.55626479  0.11641375  0.08381858    -0.22400
C252        C  0.55280097  0.13305522  0.04225150    -0.22400
C253        C  0.57571986  0.87751179  0.98074439    -0.22400
C254        C  0.57347356  0.89359788  0.93843973    -0.22400
C255        C  0.61857643  0.97989811  0.14059216    -0.23400
C256        C  0.62443214  0.93975948  0.12240964    -0.23400
C257        C  0.58764322  0.07878127  0.89011353    -0.23400
C258        C  0.59186951  0.03829162  0.87196395    -0.23400
C259        C  0.58542970  0.04767979  0.11429384    -0.18800
C260        C  0.57447312  0.10746031  0.96701943    -0.18800
C261        C  0.58842346  0.96450639  0.90274527    -0.18800
C262        C  0.59956422  0.90632411  0.05247185    -0.18800
H263        H  0.54927712  0.13453525  0.11371543     0.14100
H264        H  0.54197187  0.16552554  0.03475367     0.14100
H265        H  0.56742308  0.84511623  0.99094658     0.14100
H266        H  0.56261787  0.87580341  0.91018002     0.14100
H267        H  0.62659848  0.98933187  0.17386166     0.12400
H268        H  0.63818577  0.91259106  0.13966424     0.12400
H269        H  0.58681707  0.10834983  0.87133936     0.12400
H270        H  0.59524848  0.03076265  0.83689312     0.12400
H271        H  0.59872212  0.04014524  0.02202604     0.25700
H272        H  0.61402993  0.97369206  0.99137088     0.25700
N273        N  0.98043552  0.43856431  0.10148681    -0.37100
N274        N  0.91977668  0.41321202  0.03443743    -0.57700
N275        N  0.99542071  0.40105108  0.97081154    -0.37100
N276        N  0.05526874  0.42717730  0.03817693    -0.57700
C277        C  0.94365679  0.43019947  0.12725230     0.26500
C278        C  0.01482509  0.43970256  0.12894283     0.26500
C279        C  0.96156544  0.40085962  0.94258974     0.26500
C280        C  0.03387842  0.40312250  0.94566453     0.26500
C281        C  0.88938413  0.41986739  0.06810528     0.35100
C282        C  0.89649370  0.40765249  0.99780636     0.35100
C283        C  0.07726954  0.44268329  0.07248316     0.35100
C284        C  0.08587255  0.42331791  0.00437678     0.35100
C285        C  0.95530144  0.42770530  0.17141183    -0.22400
C286        C  0.99992217  0.43403519  0.17242899    -0.22400
C287        C  0.97883057  0.40014794  0.89912231    -0.22400
C288        C  0.02437329  0.40135329  0.90104325    -0.22400
C289        C  0.84646997  0.41772736  0.05329698    -0.23400
C290        C  0.85089710  0.41039337  0.00858724    -0.23400
C291        C  0.12179488  0.44918632  0.06014275    -0.23400
C292        C  0.12733739  0.43660619  0.01713696    -0.23400
C293        C  0.89983038  0.42565496  0.11243191    -0.18800
C294        C  0.05965304  0.44503920  0.11626635    -0.18800
C295        C  0.07692989  0.41089329  0.96111791    -0.18800
C296        C  0.91544498  0.40344179  0.95428584    -0.18800
H297        H  0.93468347  0.42234842  0.20078957     0.14100
H298        H  0.01925233  0.43376831  0.20194609     0.14100
H299        H  0.96048233  0.40011808  0.86898076     0.14100
H300        H  0.04765415  0.40295528  0.87261241     0.14100
H301        H  0.81531075  0.42150395  0.07258808     0.12400
H302        H  0.82345882  0.40802625  0.98663601     0.12400
H303        H  0.14820245  0.46037611  0.08015585     0.12400
H304        H  0.15841776  0.43746457  0.99745476     0.12400
H305        H  0.98159316  0.44628547  0.06791276     0.25700
H306        H  0.99252065  0.39926743  0.00511508     0.25700
N307        N  0.40622913  0.99810827  0.07701856    -0.37100
N308        N  0.39682856  0.94485619  0.99972593    -0.57700
N309        N  0.39654817  0.02054170  0.94377314    -0.37100
N310        N  0.40577910  0.07360563  0.02205119    -0.57700
C311        C  0.41726320  0.95909331  0.09297230     0.26500
C312        C  0.42370338  0.02723947  0.10426967     0.26500
C313        C  0.40595307  0.98969488  0.91293948     0.26500
C314        C  0.40727447  0.05857573  0.92478144     0.26500
C315        C  0.39340794  0.91385954  0.03083923     0.35100
C316        C  0.39174352  0.92542731  0.96037929     0.35100
C317        C  0.40764420  0.09306376  0.06186600     0.35100
C318        C  0.40044227  0.10521459  0.99222809     0.35100
C319        C  0.44158622  0.96363154  0.13087709    -0.22400
C320        C  0.44552614  0.00670621  0.13803938    -0.22400
C321        C  0.42072564  0.00856916  0.87336997    -0.22400
C322        C  0.42117249  0.05203170  0.88070483    -0.22400
C323        C  0.38487985  0.87458898  0.01141542    -0.23400
C324        C  0.38418074  0.88187626  0.96654511    -0.23400
C325        C  0.40331906  0.13717394  0.05767545    -0.23400
C326        C  0.39874764  0.14501331  0.01350520    -0.23400
C327        C  0.40537172  0.91936539  0.07494334    -0.18800
C328        C  0.41868617  0.07190095  0.10086621    -0.18800
C329        C  0.40492000  0.09908307  0.94596248    -0.18800
C330        C  0.40157752  0.94494505  0.91914735    -0.18800
H331        H  0.45544877  0.93859620  0.15129778     0.14100
H332        H  0.46264322  0.02118311  0.16503162     0.14100
H333        H  0.43036345  0.99271809  0.84233906     0.14100
H334        H  0.43125977  0.07589647  0.85630245     0.14100
H335        H  0.38232677  0.84356560  0.02755732     0.12400
H336        H  0.38077018  0.85757931  0.94122512     0.12400
H337        H  0.40578074  0.16126755  0.08332197     0.12400
H338        H  0.39705968  0.17672583  0.99894891     0.12400
H339        H  0.38415402  0.00433418  0.05203941     0.25700
H340        H  0.38124053  0.01633108  0.97502423     0.25700
N341        N  0.99071033  0.04413261  0.58987404    -0.37100
N342        N  0.07324721  0.99830990  0.58724625    -0.57700
N343        N  0.02578278  0.91763065  0.58337921    -0.37100
N344        N  0.94240890  0.96540942  0.58933329    -0.57700
C345        C  0.01891214  0.07564656  0.59946145     0.26500
C346        C  0.95000936  0.05684042  0.60564323     0.26500
C347        C  0.06693228  0.90277410  0.59273622     0.26500
C348        C  0.99683438  0.88497827  0.58974860     0.26500
C349        C  0.08890543  0.03795893  0.57858547     0.35100
C350        C  0.10837564  0.97120989  0.58138616     0.35100
C351        C  0.90912445  0.99377453  0.58214176     0.35100
C352        C  0.92743907  0.92695616  0.57697612     0.35100
C353        C  0.99663868  0.10875570  0.62194204    -0.22400
C354        C  0.95300224  0.09659443  0.62659424    -0.22400
C355        C  0.06431245  0.85936042  0.60351067    -0.22400
C356        C  0.01997284  0.84820963  0.60178547    -0.22400
C357        C  0.13433718  0.03605734  0.56789035    -0.23400
C358        C  0.14677353  0.99373652  0.57000111    -0.23400
C359        C  0.87254878  0.97365735  0.56583786    -0.23400
C360        C  0.88396825  0.93112486  0.56296166    -0.23400
C361        C  0.06357497  0.07596086  0.58538226    -0.18800
C362        C  0.91054447  0.03712935  0.59329428    -0.18800
C363        C  0.95039413  0.88780022  0.58361345    -0.18800
C364        C  0.10689399  0.92675151  0.58872797    -0.18800
H365        H  0.01038405  0.13848951  0.63363234     0.14100
H366        H  0.92706021  0.11561122  0.64336582     0.14100
H367        H  0.09142855  0.83776678  0.61154123     0.14100
H368        H  0.00639638  0.81667019  0.60841144     0.14100
H369        H  0.15679748  0.06226887  0.56108205     0.12400
H370        H  0.18041477  0.98116997  0.56428032     0.12400
H371        H  0.84057475  0.98786023  0.55825435     0.12400
H372        H  0.86181494  0.90633098  0.55304484     0.12400
H373        H  0.99757170  0.01931459  0.56722143     0.25700
H374        H  0.01847679  0.94716538  0.56918807     0.25700
N375        N  0.08908904  0.96800072  0.43165483    -0.37100
N376        N  0.01730674  0.90898958  0.43691827    -0.57700
N377        N  0.95658644  0.97965342  0.41238419    -0.37100
N378        N  0.03094196  0.03704303  0.40511627    -0.57700
C379        C  0.11028211  0.93340836  0.44795545     0.26500
C380        C  0.11662530  0.00140921  0.43586356     0.26500
C381        C  0.92781648  0.94945064  0.42789764     0.26500
C382        C  0.93515467  0.01838211  0.41617800     0.26500
C383        C  0.05099319  0.87997566  0.43975569     0.35100
C384        C  0.98016348  0.88632942  0.43157740     0.35100
C385        C  0.06976109  0.05811711  0.40163857     0.35100
C386        C  0.99873764  0.06496971  0.39362418     0.35100
C387        C  0.15210030  0.94510911  0.46138445    -0.22400
C388        C  0.15573039  0.98802860  0.45471858    -0.22400
C389        C  0.88701015  0.96874107  0.43963725    -0.22400
C390        C  0.89168109  0.01215563  0.43253034    -0.22400
C391        C  0.03537442  0.83852201  0.43733795    -0.23400
C392        C  0.99024213  0.84242705  0.43264667    -0.23400
C393        C  0.06228253  0.09954095  0.38594303    -0.23400
C394        C  0.01727159  0.10381701  0.38091282    -0.23400
C395        C  0.09541164  0.89081093  0.44581232    -0.18800
C396        C  0.10956261  0.04303226  0.42004035    -0.18800
C397        C  0.95353202  0.05929507  0.40561139    -0.18800
C398        C  0.93695149  0.90476738  0.43047227    -0.18800
H399        H  0.17903171  0.92493407  0.47184835     0.14100
H400        H  0.18518207  0.00660060  0.46050000     0.14100
H401        H  0.85710784  0.95327927  0.45268387     0.14100
H402        H  0.86578084  0.03634363  0.43866144     0.14100
H403        H  0.05427800  0.80873180  0.43976700     0.12400
H404        H  0.96768288  0.81571888  0.43118720     0.12400
H405        H  0.08570819  0.12534380  0.38142206     0.12400
H406        H  0.99996491  0.13322165  0.37222944     0.12400
H407        H  0.06084682  0.96751725  0.41313630     0.25700
H408        H  0.98784035  0.97339266  0.39725839     0.25700
C409        C  0.69327240  0.89835699  0.64311187     0.79700
N410        N  0.67188767  0.88937198  0.60557543    -0.78600
C411        C  0.65968855  0.92146047  0.57781770     0.82200
N412        N  0.67346449  0.96215457  0.58554313    -0.78500
C413        C  0.69057649  0.97370832  0.62492174     0.82300
N414        N  0.70015365  0.94105273  0.65409606    -0.80200
C415        C  0.68883935  0.09483511  0.64014480     0.79700
N416        N  0.64757401  0.10078618  0.62503818    -0.78600
C417        C  0.61987872  0.06752443  0.62022099     0.82200
N418        N  0.63298574  0.02750725  0.63151290    -0.78500
C419        C  0.67592380  0.01838919  0.64043862     0.82300
N420        N  0.70406624  0.05277382  0.64667778    -0.80200
C421        C  0.90986699  0.60648860  0.73432852     0.79700
N422        N  0.95625128  0.61323334  0.73484605    -0.78600
C423        C  0.98525982  0.58822309  0.70771707     0.82200
N424        N  0.96644594  0.56184008  0.67824507    -0.78500
C425        C  0.92209990  0.55702763  0.67634236     0.82300
N426        N  0.89437335  0.57693976  0.70619369    -0.80200
C427        C  0.11450086  0.60227442  0.71334303     0.79700
N428        N  0.12644569  0.57146871  0.68299884    -0.78600
C429        C  0.09540598  0.54852506  0.66261716     0.82200
N430        N  0.05208177  0.55372185  0.67571195    -0.81700
C431        C  0.03698691  0.58474485  0.70479470     0.82300
N432        N  0.06885925  0.61092692  0.72275307    -0.80200
C433        C  0.65221302  0.64456067  0.92283892     0.79700
N434        N  0.66053909  0.65899289  0.96531084    -0.78600
C435        C  0.62735451  0.65904658  0.99874892     0.82200
N436        N  0.58599700  0.64638580  0.98779129    -0.78500
C437        C  0.57924299  0.62690475  0.94845935     0.82300
N438        N  0.61177225  0.62794297  0.91582676    -0.80200
C439        C  0.62724584  0.67535567  0.12264195     0.79700
N440        N  0.64146874  0.68234752  0.07866470    -0.78600
C441        C  0.63663696  0.65062981  0.04699932     0.82200
N442        N  0.62178586  0.61193690  0.06141000    -0.78500
C443        C  0.60339338  0.60709576  0.10276657     0.82300
N444        N  0.60390634  0.63967859  0.13222343    -0.80200
C445        C  0.89696221  0.66784167  0.39500208     0.79700
N446        N  0.88158956  0.64540877  0.43070468    -0.78600
C447        C  0.91017612  0.62437200  0.45666096     0.82200
N448        N  0.95476736  0.62906110  0.44933659    -0.78500
C449        C  0.97207522  0.65298615  0.41519053     0.82300
N450        N  0.94273243  0.67180168  0.38681633    -0.80200
C451        C  0.09395027  0.66300928  0.37325778     0.79700
N452        N  0.04796227  0.66916630  0.37482125    -0.78600
C453        C  0.02281731  0.65448284  0.41115239     0.82200
N454        N  0.04457530  0.63514554  0.44489693    -0.78500
C455        C  0.08961312  0.62976000  0.44364043     0.82300
N456        N  0.11352205  0.64509373  0.40838741    -0.80200
C457        C  0.63465922  0.90944764  0.30675820     0.79700
N458        N  0.65049883  0.95107209  0.30115109    -0.78600
C459        C  0.62756835  0.98525472  0.32131594     0.82200
N460        N  0.59316907  0.97574609  0.35004027    -0.78500
C461        C  0.58390642  0.93509426  0.36193130     0.82300
N462        N  0.60206661  0.90216730  0.33812215    -0.80200
C463        C  0.63103823  0.10373173  0.32011311     0.79700
N464        N  0.64363789  0.06361272  0.30288028    -0.78600
C465        C  0.64732312  0.02861153  0.33099790     0.82200
N466        N  0.64533633  0.03722286  0.37528188    -0.78500
C467        C  0.62313427  0.07293292  0.39042319     0.82300
N468        N  0.61467959  0.10527060  0.36214374    -0.80200
C469        C  0.91593256  0.28592957  0.63030570     0.79700
N470        N  0.96125373  0.27884541  0.63703185    -0.78600
C471        C  0.99128760  0.31101369  0.62589756     0.82200
N472        N  0.97405975  0.35031124  0.61648068    -0.78500
C473        C  0.93142951  0.35478496  0.60481280     0.82300
N474        N  0.90382702  0.32115999  0.60749616    -0.80200
C475        C  0.11763499  0.29146399  0.61583955     0.79700
N476        N  0.07325986  0.28473466  0.62938212    -0.78600
C477        C  0.03928366  0.30528756  0.60801216     0.82200
N478        N  0.05110896  0.33452274  0.57628172    -0.78500
C479        C  0.09393369  0.34583902  0.56790225     0.82300
N480        N  0.12708297  0.32247088  0.58546008    -0.80200
C481        C  0.36942882  0.88995098  0.68606532     0.79700
N482        N  0.35205287  0.93161503  0.68597335    -0.78600
C483        C  0.37909124  0.96546985  0.67454518     0.82200
N484        N  0.42234046  0.95594267  0.66205440    -0.78500
C485        C  0.43677952  0.91494208  0.65455561     0.82300
N486        N  0.41204364  0.88233951  0.67124340    -0.80200
C487        C  0.32792216  0.07851889  0.66033908     0.79700
N488        N  0.35496156  0.09045998  0.62593734    -0.78600
C489        C  0.38686232  0.06372380  0.60910885     0.82200
N490        N  0.38726956  0.02216043  0.62135535    -0.78500
C491        C  0.36232675  0.00813269  0.65677918     0.82300
N492        N  0.33350401  0.03749602  0.67837097    -0.80200
C493        C  0.67315533  0.35140558  0.92230216     0.79700
N494        N  0.67655508  0.34047877  0.96672398    -0.78600
C495        C  0.65889485  0.36795571  0.99879839     0.82200
N496        N  0.63669538  0.40361253  0.98540152    -0.78500
C497        C  0.63224137  0.41291943  0.94217285     0.82300
N498        N  0.65263957  0.38818268  0.91092839    -0.80200
C499        C  0.64882272  0.32040604  0.11473400     0.79700
N500        N  0.62077878  0.35134503  0.13182137    -0.78600
C501        C  0.61730041  0.38954758  0.11091859     0.82200
N502        N  0.63877437  0.39517168  0.07129672    -0.78500
C503        C  0.65778440  0.36168323  0.04842839     0.82300
N504        N  0.66519220  0.32400209  0.07107785    -0.80200
C505        C  0.30662673  0.62516123  0.93452718     0.79700
N506        N  0.33306465  0.59081768  0.92411001    -0.78600
C507        C  0.35431860  0.56959054  0.95586257     0.82200
N508        N  0.34404360  0.57801732  0.99886685    -0.78500
C509        C  0.31895113  0.61276545  0.01171870     0.82300
N510        N  0.30192730  0.63852725  0.97872017    -0.80200
C511        C  0.29869163  0.61647203  0.13475321     0.79700
N512        N  0.29191589  0.63002665  0.09158017    -0.78600
C513        C  0.32597017  0.62561242  0.05941759     0.82200
N514        N  0.36687489  0.61348271  0.07345983    -0.78500
C515        C  0.37109065  0.59461001  0.11363573     0.82300
N516        N  0.33508662  0.59228787  0.14171312    -0.80200
C517        C  0.33431997  0.90677209  0.37942707     0.79700
N518        N  0.35530813  0.89698830  0.41688878    -0.78600
C519        C  0.36689990  0.92845882  0.44473942     0.82200
N520        N  0.35176314  0.96914645  0.43803560    -0.78500
C521        C  0.33515870  0.98141593  0.39859200     0.82300
N522        N  0.32656937  0.94949712  0.36866765    -0.80200
C523        C  0.33288924  0.10008359  0.36767275     0.79700
N524        N  0.37005235  0.11146081  0.38751638    -0.78600
C525        C  0.39679693  0.08149663  0.40415531     0.82200
N526        N  0.38654235  0.03955805  0.40186609    -0.78500
C527        C  0.34803812  0.02638326  0.38491069     0.82300
N528        N  0.32054272  0.05713610  0.36685243    -0.80200
C529        C  0.90867926  0.36545081  0.34257886     0.79700
N530        N  0.89143815  0.39406926  0.37267703    -0.78600
C531        C  0.91666360  0.42500646  0.38913806     0.82200
N532        N  0.95956901  0.42828061  0.37439517    -0.78500
C533        C  0.97919369  0.40013808  0.34471147     0.82300
N534        N  0.95353121  0.36747568  0.32873018    -0.80200
C535        C  0.10442097  0.39179359  0.31198182     0.79700
N536        N  0.11755619  0.42683476  0.33386810    -0.78600
C537        C  0.08866518  0.44759872  0.36181595     0.82200
N538        N  0.04454884  0.44145529  0.35826854    -0.78500
C539        C  0.02868168  0.40774491  0.33542718     0.82300
N540        N  0.05949936  0.38069027  0.31394039    -0.80200
C541        C  0.35460739  0.33094895  0.91038078     0.79700
N542        N  0.34255979  0.32789172  0.95516898    -0.78600
C543        C  0.37379238  0.33615543  0.98597652     0.82200
N544        N  0.41564858  0.34604392  0.97068068    -0.78500
C545        C  0.42361625  0.35801601  0.92801930     0.82300
N546        N  0.39486895  0.34638536  0.89748530    -0.80200
C547        C  0.31874984  0.36059837  0.09973451     0.79700
N548        N  0.32607398  0.34044735  0.05893602    -0.78600
C549        C  0.36286857  0.35125667  0.03268885     0.82200
N550        N  0.39374279  0.37683976  0.05048981    -0.78500
C551        C  0.38563989  0.39625662  0.09014111     0.82300
N552        N  0.34497200  0.39335176  0.11027433    -0.80200
C553        C  0.16171960  0.41507008  0.16283765     0.79700
N554        N  0.11822173  0.41097761  0.15467588    -0.78600
C555        C  0.09189882  0.44638089  0.15086961     0.82200
N556        N  0.10732562  0.48548635  0.16156651    -0.78500
C557        C  0.15142985  0.49152309  0.16643275     0.82300
N558        N  0.17898771  0.45581092  0.16666144    -0.80200
C559        C  0.16362710  0.60965555  0.16276090     0.79700
N560        N  0.15003511  0.61595566  0.12111937    -0.78600
C561        C  0.14080977  0.58150996  0.09599887     0.82200
N562        N  0.15672851  0.54222897  0.10744589    -0.78500
C563        C  0.16727761  0.53392770  0.14984818     0.82300
N564        N  0.16969018  0.56828122  0.17808449    -0.80200
C565        C  0.40528456  0.12454931  0.20959645     0.79700
N566        N  0.44956765  0.13335289  0.21779153    -0.78600
C567        C  0.48303259  0.12329233  0.18626136     0.82200
N568        N  0.47059821  0.10903077  0.14623543    -0.78500
C569        C  0.42821470  0.09743917  0.13978489     0.82300
N570        N  0.39656268  0.10222305  0.17265626    -0.80200
C571        C  0.60768477  0.13231228  0.18634489     0.79700
N572        N  0.56356971  0.14222443  0.19906965    -0.78600
C573        C  0.53085631  0.11175559  0.19603986     0.82200
N574        N  0.54390062  0.07252899  0.17969476    -0.78500
C575        C  0.58462430  0.06641672  0.15897235     0.82300
N576        N  0.61747201  0.09435797  0.16637672    -0.80200
C577        C  0.39543307  0.20499621  0.89380102     0.79700
N578        N  0.38534642  0.16957039  0.91757570    -0.78600
C579        C  0.41524256  0.13693681  0.91912477     0.82200
N580        N  0.45748524  0.14225139  0.90288472    -0.78500
C581        C  0.47238542  0.18168149  0.89088189     0.82300
N582        N  0.44031311  0.21305060  0.88318200    -0.80200
C583        C  0.59852787  0.19506719  0.89346497     0.79700
N584        N  0.55522235  0.20221442  0.87968316    -0.78600
C585        C  0.51905174  0.18973057  0.90653951     0.82200
N586        N  0.52799642  0.16656236  0.94335483    -0.78500
C587        C  0.56956907  0.15169529  0.95053646     0.82300
N588        N  0.60478416  0.16963461  0.92890259    -0.80200
C589        C  0.40794204  0.85139400  0.17284808     0.79700
N590        N  0.39181006  0.87671408  0.14072296    -0.78600
C591        C  0.41479359  0.88148033  0.10163366     0.82200
N592        N  0.45571945  0.86325470  0.09580515    -0.78500
C593        C  0.47669402  0.84390380  0.12954944     0.82300
N594        N  0.45178385  0.83584511  0.16826304    -0.80200
C595        C  0.60324218  0.82838194  0.14042419     0.79700
N596        N  0.61709809  0.84752243  0.10211387    -0.78600
C597        C  0.58730589  0.86627895  0.07571514     0.82200
N598        N  0.54323132  0.86004253  0.08430696    -0.78500
C599        C  0.52720019  0.84063263  0.12200431     0.82300
N600        N  0.55773470  0.82537683  0.15118548    -0.80200
C601        C  0.85785302  0.39070025  0.21640912     0.79700
N602        N  0.85335841  0.43124538  0.23570080    -0.78600
C603        C  0.85134466  0.46743117  0.20890046     0.82200
N604        N  0.84869307  0.46069415  0.16466534    -0.78500
C605        C  0.86377320  0.42315440  0.14650858     0.82300
N606        N  0.86441616  0.38770334  0.17203231    -0.80200
C607        C  0.87440395  0.58528890  0.22383740     0.79700
N608        N  0.85481616  0.54572313  0.23194847    -0.78600
C609        C  0.87620054  0.50813699  0.21809138     0.82200
N610        N  0.91402107  0.51209871  0.19198696    -0.78500
C611        C  0.92836187  0.55085952  0.17739636     0.82300
N612        N  0.91112405  0.58704280  0.19647765    -0.80200
C613        C  0.88286121  0.15886754  0.40747411     0.79700
N614        N  0.91235515  0.12785148  0.39244718    -0.78600
C615        C  0.92813134  0.09810923  0.42092190     0.82200
N616        N  0.91738163  0.10145523  0.46468293    -0.78500
C617        C  0.88638402  0.13005292  0.48096783     0.82300
N618        N  0.86790710  0.15845188  0.45174661    -0.80200
C619        C  0.85147387  0.13413898  0.60328532     0.79700
N620        N  0.85745260  0.09230711  0.61289962    -0.78600
C621        C  0.87368951  0.06519627  0.58144375     0.82200
N622        N  0.87352560  0.07734215  0.53841652    -0.78500
C623        C  0.86725580  0.11904598  0.52657695     0.82300
N624        N  0.85678633  0.14830504  0.55977309    -0.80200
C625        C  0.20454053  0.85394157  0.41594049     0.79700
N626        N  0.16093644  0.86198269  0.41068382    -0.78600
C627        C  0.13043033  0.85760482  0.44447525     0.82200
N628        N  0.14342953  0.84093428  0.48343192    -0.78500
C629        C  0.18735294  0.84019936  0.49321384     0.82300
N630        N  0.21841316  0.84425984  0.45812028    -0.80200
C631        C  0.19615601  0.85181975  0.61699807     0.79700
N632        N  0.16551257  0.88393350  0.62242649    -0.78600
C633        C  0.14978326  0.90366462  0.58642742     0.82200
N634        N  0.16832783  0.89495975  0.54591501    -0.78500
C635        C  0.19431951  0.85964721  0.53810624     0.82300
N636        N  0.20700559  0.83650869  0.57453205    -0.80200
C637        C  0.81907317  0.38707150  0.88656938     0.79700
N638        N  0.80727181  0.43009653  0.87960665    -0.78600
C639        C  0.83578246  0.46248568  0.89173577     0.82200
N640        N  0.87645947  0.45023408  0.90540015    -0.78500
C641        C  0.88472035  0.40946400  0.91842544     0.82300
N642        N  0.85558312  0.37821977  0.90981870    -0.80200
C643        C  0.81980672  0.58359439  0.89753632     0.79700
N644        N  0.81330839  0.54178034  0.88264435    -0.78600
C645        C  0.82158336  0.50681536  0.90942830     0.82200
N646        N  0.83732789  0.51527248  0.95012770    -0.78500
C647        C  0.85217992  0.55479071  0.96083527     0.82300
N648        N  0.83976559  0.58940005  0.93650062    -0.80200
C649        C  0.86910241  0.81013506  0.41459067     0.79700
N650        N  0.89359633  0.84532954  0.40544547    -0.78600
C651        C  0.89970126  0.87529114  0.43689065     0.82200
N652        N  0.88238894  0.86939132  0.47850082    -0.78500
C653        C  0.86326812  0.83183927  0.49119060     0.82300
N654        N  0.85508645  0.80229885  0.45835034    -0.80200
C655        C  0.84832430  0.83679703  0.61446357     0.79700
N656        N  0.83854343  0.82259350  0.57233777    -0.78600
C657        C  0.87155997  0.82007805  0.53878575     0.82200
N658        N  0.91407285  0.82843780  0.54983652    -0.78500
C659        C  0.92212314  0.84974335  0.58779775     0.82300
N660        N  0.88973135  0.85168243  0.62056684    -0.80200
C661        C  0.40320284  0.86951969  0.82436276     0.79700
N662        N  0.44941049  0.86502678  0.81501847    -0.78600
C663        C  0.47905020  0.88828601  0.83976586     0.82200
N664        N  0.46157154  0.91089340  0.87502779    -0.78500
C665        C  0.41730386  0.91679048  0.88252019     0.82300
N666        N  0.38843001  0.89764853  0.85619760    -0.80200
C667        C  0.60703181  0.88499518  0.81657842     0.79700
N668        N  0.61589732  0.92104476  0.83973326    -0.78600
C669        C  0.58231518  0.94558793  0.85822655     0.82200
N670        N  0.53985500  0.93767946  0.84747287    -0.78500
C671        C  0.52801558  0.90010093  0.82820897     0.82300
N672        N  0.56249715  0.87253148  0.81385798    -0.80200
Zr673      Zr  0.25510959  0.65197007  0.78224270     2.17500
O674        O  0.29844755  0.59053755  0.75316868    -0.51800
O675        O  0.20961441  0.60938318  0.82722065    -0.75000
O676        O  0.28324899  0.63412505  0.85910334    -0.81800
O677        O  0.14769507  0.67082970  0.70785432    -0.83600
O678        O  0.30592965  0.69223065  0.89792846    -0.79200
O679        O  0.18677266  0.61970724  0.74495909    -0.90800
O680        O  0.16100029  0.66134217  0.85450235    -0.76800
O681        O  0.25309794  0.70064623  0.84188308    -0.86300
O682        O  0.19021213  0.69593658  0.77755350    -0.86000
O683        O  0.32356177  0.69279976  0.77636440    -0.72700
O684        O  0.26625554  0.68916628  0.71246195    -0.84900
Zr685      Zr  0.25925018  0.82185026  0.76261950     2.26400
Zr686      Zr  0.31848458  0.74260294  0.83786246     2.06300
Zr687      Zr  0.19847894  0.73102135  0.70830632     2.10000
Zr688      Zr  0.18632172  0.73906802  0.83997951     1.78800
O689        O  0.20375424  0.69157534  0.63839528    -0.93700
O690        O  0.19504049  0.73395813  0.91976127    -0.41500
O691        O  0.19247842  0.77953262  0.77078955    -0.78100
O692        O  0.25106931  0.78571119  0.83365752    -0.96800
O693        O  0.32424599  0.77991931  0.76996891    -0.90100
O694        O  0.26524794  0.77240861  0.70246654    -0.92900
C695        C  0.17329366  0.62110047  0.84686019     1.00800
C696        C  0.15155759  0.63270739  0.72356040     1.13800
C697        C  0.29647936  0.65235869  0.89550031     1.04500
O698        O  0.32254483  0.78417508  0.90602885    -0.95100
O699        O  0.37339129  0.79906630  0.82552532    -0.90800
O700        O  0.33078751  0.85151719  0.79491713    -0.84000
C701        C  0.36804139  0.83788750  0.81208021     1.11200
O702        O  0.37061006  0.67324258  0.67334516    -0.97100
Zr703      Zr  0.33221678  0.73483452  0.70881051     1.88900
O704        O  0.30282561  0.86330059  0.71401130    -0.73700
O705        O  0.38939065  0.70442455  0.84642304    -0.53000
O706        O  0.41060507  0.73244568  0.72709462    -0.97700
O707        O  0.33353261  0.73730272  0.62783755    -0.54900
O708        O  0.35652311  0.81281844  0.69564266    -0.74200
C709        C  0.34132012  0.85269815  0.69848719     0.98100
O710        O  0.22143130  0.88453074  0.79593245    -0.63000
O711        O  0.12493690  0.76467521  0.70279893    -0.57800
O712        O  0.22204790  0.84462386  0.69177939    -0.94500
O713        O  0.19615781  0.78680257  0.65438999    -0.93000
O714        O  0.10673780  0.74554469  0.82761450    -0.93300
O715        O  0.14815618  0.79775962  0.88035665    -0.92100
C716        C  0.20557177  0.82651891  0.65694658     1.17000
H717        H  0.16147883  0.68313040  0.78148167     0.32900
H718        H  0.24945929  0.80678452  0.85727567     0.43800
H719        H  0.27153590  0.78561200  0.67406119     0.37300
H720        H  0.34889507  0.67341039  0.77853664     0.33800
H721        H  0.20467294  0.70380345  0.92478766     0.25500
H722        H  0.39933775  0.71360581  0.87580305     0.31500
H723        H  0.41173121  0.74855587  0.75535526     0.37400
H724        H  0.09280303  0.72289289  0.84642743     0.31900
H725        H  0.11408303  0.75449489  0.67411608     0.30700
H726        H  0.17734027  0.70133051  0.62229912     0.32400
H727        H  0.33198781  0.76824067  0.62015924     0.31400
H728        H  0.15400343  0.82345735  0.86171151     0.35400
H729        H  0.24066494  0.89305766  0.82022468     0.28100
H730        H  0.27689866  0.56670854  0.75325664     0.32300
H731        H  0.39753638  0.68489426  0.65768150     0.35200
H732        H  0.10582304  0.75001523  0.72556704     0.27800
H733        H  0.22552681  0.90743753  0.77336142     0.40700
H734        H  0.35028987  0.77379338  0.91944039     0.30700
H735        H  0.22183232  0.75112379  0.92517795     0.38400
H736        H  0.30426760  0.72586555  0.61991354     0.30200
H737        H  0.38176872  0.67374881  0.85047324     0.30300
H738        H  0.31881155  0.58311145  0.77709503     0.30500
Zr739      Zr  0.75487173  0.65817199  0.78562230     2.17500
O740        O  0.72247633  0.59747161  0.74833125    -0.51800
O741        O  0.78559285  0.61196777  0.83688513    -0.75000
O742        O  0.83294897  0.62720887  0.75931538    -0.81800
O743        O  0.66529715  0.70346449  0.87914137    -0.83600
O744        O  0.88464861  0.67814023  0.74261037    -0.79200
O745        O  0.70054037  0.64204089  0.85341806    -0.90800
O746        O  0.82014772  0.66195119  0.87846881    -0.76800
O747        O  0.82207895  0.69526678  0.78970531    -0.86300
O748        O  0.74632537  0.70921571  0.84402952    -0.86000
O749        O  0.76571722  0.69445750  0.71477160    -0.72700
O750        O  0.69379602  0.70447203  0.76383036    -0.84900
Zr751      Zr  0.76007860  0.83080231  0.76157676     2.26400
Zr752      Zr  0.83334943  0.73419944  0.72307009     2.06300
Zr753      Zr  0.68537357  0.75455884  0.82427724     2.10000
Zr754      Zr  0.81437486  0.74135707  0.84982596     1.78800
O755        O  0.61323625  0.72243646  0.81254580    -0.93700
O756        O  0.89491023  0.72979414  0.84077986    -0.41500
O757        O  0.75380574  0.79234531  0.83180109    -0.78100
O758        O  0.82327968  0.78526324  0.78268524    -0.96800
O759        O  0.77212526  0.77884553  0.70667200    -0.90100
O760        O  0.69403790  0.79111165  0.75504809    -0.92900
C761        C  0.80834933  0.62202277  0.86959719     1.00800
C762        C  0.67481985  0.66370795  0.88268528     1.13800
C763        C  0.87432705  0.63897715  0.74858699     1.04500
O764        O  0.90342670  0.77268470  0.72590881    -0.95100
O765        O  0.83460055  0.77842426  0.65896470    -0.90800
O766        O  0.80626407  0.84171261  0.68719872    -0.84000
C767        C  0.82660296  0.81851336  0.65535337     1.11200
O768        O  0.67543470  0.68738280  0.65082071    -0.97100
Zr769      Zr  0.70601598  0.74471787  0.69493861     1.88900
O770        O  0.72714128  0.87385347  0.70694391    -0.73700
O771        O  0.85730596  0.69387569  0.65640336    -0.53000
O772        O  0.73753672  0.74331915  0.61908052    -0.97700
O773        O  0.62463873  0.74818831  0.69521917    -0.54900
O774        O  0.69713415  0.82174794  0.66447369    -0.74200
C775        C  0.70628772  0.86210885  0.67321294     0.98100
O776        O  0.79932850  0.89185372  0.79089843    -0.63000
O777        O  0.67181777  0.79443388  0.89341406    -0.57800
O778        O  0.68551574  0.86576222  0.79301092    -0.94500
O779        O  0.63672965  0.81537163  0.81957289    -0.93000
O780        O  0.79540030  0.74934510  0.92891716    -0.93300
O781        O  0.85463197  0.79594023  0.88925347    -0.92100
C782        C  0.64560620  0.85388077  0.80859668     1.17000
H783        H  0.74456673  0.69832468  0.87389508     0.32900
H784        H  0.84929899  0.80295058  0.78474414     0.43800
H785        H  0.66856005  0.80756505  0.74589484     0.37300
H786        H  0.77025260  0.67322310  0.69152663     0.33800
H787        H  0.89927229  0.69818895  0.84227058     0.25500
H788        H  0.89036804  0.69349666  0.65601192     0.31500
H789        H  0.76764484  0.73019983  0.62144307     0.37400
H790        H  0.78516152  0.72065347  0.93888770     0.31900
H791        H  0.64228540  0.78484408  0.90532147     0.30700
H792        H  0.59165786  0.73920371  0.83173304     0.32400
H793        H  0.61743207  0.77762777  0.68493685     0.31400
H794        H  0.86704178  0.81509237  0.86569784     0.35400
H795        H  0.77532204  0.91203288  0.80158636     0.28100
H796        H  0.69104463  0.60639811  0.74440685     0.32300
H797        H  0.65908318  0.70217038  0.62723056     0.35200
H798        H  0.69341787  0.78201917  0.91398846     0.27800
H799        H  0.81251161  0.88077526  0.81827270     0.40700
H800        H  0.92158108  0.76210499  0.69978599     0.30700
H801        H  0.90246901  0.73714280  0.80942904     0.38400
H802        H  0.61473928  0.74806643  0.72698230     0.30200
H803        H  0.84877084  0.66367505  0.66209839     0.30300
H804        H  0.72069421  0.57465990  0.77123087     0.30500
Zr805      Zr  0.66394139  0.75830331  0.25746110     2.17500
O806        O  0.59687050  0.73325786  0.29719771    -0.51800
O807        O  0.62260573  0.79501975  0.20555355    -0.75000
O808        O  0.64265300  0.83434285  0.28442954    -0.81800
O809        O  0.69197570  0.67254028  0.16182682    -0.83600
O810        O  0.70340602  0.87394592  0.29972357    -0.79200
O811        O  0.63616423  0.71602046  0.19134777    -0.90800
O812        O  0.68100636  0.81875472  0.16127303    -0.76800
O813        O  0.71421279  0.81551911  0.25160394    -0.86300
O814        O  0.71545233  0.74437381  0.19679206    -0.86000
O815        O  0.70157266  0.76059615  0.32675086    -0.72700
O816        O  0.70071054  0.69132773  0.27634611    -0.84900
Zr817      Zr  0.84097655  0.73537261  0.27225640     2.26400
Zr818      Zr  0.75463759  0.81755733  0.31716358     2.06300
Zr819      Zr  0.75062145  0.67773431  0.21330345     2.10000
Zr820      Zr  0.76027391  0.80337611  0.18892325     1.78800
O821        O  0.70986868  0.61174596  0.22805589    -0.93700
O822        O  0.75567801  0.88163492  0.19288471    -0.41500
O823        O  0.80148476  0.73649444  0.20378870    -0.78100
O824        O  0.80515328  0.80368629  0.25452985    -0.96800
O825        O  0.79049425  0.75172223  0.33125408    -0.90100
O826        O  0.78843917  0.67923922  0.28122804    -0.92900
C827        C  0.63804471  0.81352243  0.17088120     1.00800
C828        C  0.65311331  0.68991862  0.16059196     1.13800
C829        C  0.66172262  0.87066368  0.29441699     1.04500
O830        O  0.80219277  0.88047856  0.31343492    -0.95100
O831        O  0.80349328  0.80721504  0.37721114    -0.90800
O832        O  0.86414557  0.77560048  0.34189830    -0.84000
C833        C  0.84429860  0.79492247  0.37631528     1.11200
O834        O  0.67633393  0.66538151  0.38079196    -0.97100
Zr835      Zr  0.74274208  0.69517447  0.34372362     1.88900
O836        O  0.87976536  0.69903165  0.32743677    -0.73700
O837        O  0.71677586  0.84099992  0.38647036    -0.53000
O838        O  0.73097462  0.72626185  0.41757526    -0.97700
O839        O  0.74366078  0.61731915  0.35397228    -0.54900
O840        O  0.82041329  0.68080494  0.37344335    -0.74200
C841        C  0.86345793  0.68346232  0.36348095     0.98100
O842        O  0.90906051  0.76116153  0.23481585    -0.63000
O843        O  0.78651957  0.65812861  0.14181983    -0.57800
O844        O  0.86662147  0.66107297  0.24431337    -0.94500
O845        O  0.80847443  0.62437618  0.21688037    -0.93000
O846        O  0.76932153  0.78433066  0.11061344    -0.93300
O847        O  0.82438934  0.83585600  0.15035751    -0.92100
C848        C  0.84855739  0.62617121  0.22911968     1.17000
H849        H  0.70477700  0.74566502  0.16729029     0.32900
H850        H  0.82731231  0.82586555  0.25175577     0.43800
H851        H  0.80093415  0.65217435  0.29052809     0.37300
H852        H  0.68014629  0.76730421  0.35076585     0.33800
H853        H  0.72329264  0.88861924  0.19433924     0.25500
H854        H  0.72438817  0.87173852  0.38919506     0.31500
H855        H  0.76133299  0.72936161  0.42872387     0.37400
H856        H  0.75235526  0.80690416  0.09507420     0.31900
H857        H  0.76912348  0.63369357  0.13103709     0.30700
H858        H  0.72023624  0.59186861  0.20392205     0.32400
H859        H  0.77561211  0.60876343  0.35409214     0.31400
H860        H  0.85032407  0.82623929  0.16723979     0.35400
H861        H  0.90487438  0.75554207  0.20293760     0.28100
H862        H  0.59438065  0.70290361  0.28772184     0.32300
H863        H  0.65867233  0.65414865  0.35642707     0.35200
H864        H  0.77926814  0.68228211  0.12184236     0.27800
H865        H  0.90697679  0.79287774  0.23766676     0.40700
H866        H  0.78479970  0.90320477  0.32983741     0.30700
H867        H  0.76572236  0.88878627  0.22282643     0.38400
H868        H  0.73321021  0.60564699  0.32573645     0.30200
H869        H  0.68445894  0.84105342  0.38098405     0.30300
H870        H  0.57210393  0.74844564  0.28278712     0.30500
Zr871      Zr  0.75097916  0.24601155  0.85038284     2.17500
O872        O  0.78387755  0.20818908  0.91184637    -0.51800
O873        O  0.70923944  0.28982909  0.89802523    -0.75000
O874        O  0.78659138  0.31608482  0.87563001    -0.81800
O875        O  0.63547555  0.18887212  0.82369420    -0.83600
O876        O  0.81904279  0.35232725  0.81727847    -0.79200
O877        O  0.67589974  0.21602887  0.87939056    -0.90800
O878        O  0.68457041  0.33489017  0.84410544    -0.76800
O879        O  0.76070623  0.30590182  0.80355276    -0.86300
O880        O  0.68917273  0.25155562  0.80418962    -0.86000
O881        O  0.82155776  0.23628742  0.80892799    -0.72700
O882        O  0.75478703  0.17998055  0.80863337    -0.84900
Zr883      Zr  0.76498935  0.23342891  0.67422182     2.26400
Zr884      Zr  0.82751568  0.29745316  0.75994085     2.06300
Zr885      Zr  0.69052661  0.18576346  0.76355039     2.10000
Zr886      Zr  0.69785669  0.31316016  0.76231480     1.78800
O887        O  0.67338123  0.11719773  0.79901252    -0.93700
O888        O  0.71767390  0.38882820  0.75833012    -0.41500
O889        O  0.69657506  0.24813249  0.71690698    -0.78100
O890        O  0.76387139  0.30157880  0.71378365    -0.96800
O891        O  0.82697537  0.23286773  0.71928248    -0.90100
O892        O  0.75987016  0.17397879  0.72342432    -0.92900
C893        C  0.68953259  0.32362795  0.88574090     1.00800
C894        C  0.63901198  0.20077981  0.86389039     1.13800
C895        C  0.80544545  0.35035679  0.85814531     1.04500
O896        O  0.83823032  0.36248997  0.71611198    -0.95100
O897        O  0.88418338  0.27850042  0.70270626    -0.90800
O898        O  0.84030456  0.26169021  0.64574659    -0.84000
C899        C  0.87887265  0.27189391  0.66134729     1.11200
O900        O  0.86065575  0.13447059  0.82261719    -0.97100
Zr901      Zr  0.82393821  0.17209258  0.76311453     1.88900
O902        O  0.81345683  0.19431871  0.62791692    -0.73700
O903        O  0.89893510  0.30432829  0.79464744    -0.53000
O904        O  0.90417509  0.18377800  0.75831326    -0.97700
O905        O  0.81404628  0.09454239  0.76813892    -0.54900
O906        O  0.84111317  0.15078348  0.68167882    -0.74200
C907        C  0.83560508  0.16193788  0.64010389     0.98100
O908        O  0.73084459  0.26957117  0.61235821    -0.63000
O909        O  0.62313584  0.19433609  0.72187563    -0.57800
O910        O  0.72650697  0.16456786  0.64780949    -0.94500
O911        O  0.68852691  0.13282656  0.70602864    -0.93000
O912        O  0.61645730  0.31268963  0.76734788    -0.93300
O913        O  0.65841061  0.35178335  0.70533879    -0.92100
C914        C  0.70377455  0.13259836  0.66581338     1.17000
H915        H  0.66111876  0.25986492  0.81855981     0.32900
H916        H  0.76673751  0.32491249  0.69278298     0.43800
H917        H  0.76429790  0.14570813  0.71098982     0.37300
H918        H  0.84579947  0.23584992  0.82895993     0.33800
H919        H  0.70460459  0.40163254  0.78615205     0.25500
H920        H  0.91324131  0.27548101  0.79162105     0.31500
H921        H  0.91092373  0.19166772  0.72693499     0.37400
H922        H  0.60811810  0.32725097  0.79581155     0.31900
H923        H  0.60240266  0.17267670  0.73468988     0.30700
H924        H  0.64852892  0.10545988  0.78235176     0.32400
H925        H  0.82029951  0.08366612  0.73757983     0.31400
H926        H  0.66981425  0.33862997  0.67704791     0.35400
H927        H  0.73222368  0.24793874  0.58818623     0.28100
H928        H  0.80110213  0.18408796  0.89758541     0.32300
H929        H  0.86834028  0.15734799  0.84371327     0.35200
H930        H  0.61000308  0.22233127  0.73181878     0.27800
H931        H  0.69874448  0.27186212  0.62147220     0.40700
H932        H  0.83457977  0.38655785  0.73754341     0.30700
H933        H  0.75030402  0.38900644  0.76210720     0.38400
H934        H  0.78147337  0.09094821  0.77346710     0.30200
H935        H  0.91683917  0.32278217  0.77410105     0.30300
H936        H  0.75824000  0.19422378  0.92753678     0.30500
C937        C  0.16074976  0.39269960  0.87035169     0.79700
N938        N  0.16084551  0.43351531  0.85172654    -0.78600
C939        C  0.14053123  0.46731535  0.87459104     0.82200
N940        N  0.11854876  0.45873514  0.91349323    -0.78500
C941        C  0.11292820  0.41820789  0.92799351     0.82300
N942        N  0.13520889  0.38522423  0.90758743    -0.80200
C943        C  0.14343313  0.58482778  0.85710636     0.79700
N944        N  0.15740007  0.54258055  0.85026100    -0.78600
C945        C  0.12749441  0.50969756  0.85482308     0.82200
N946        N  0.08411818  0.52082649  0.86453731    -0.78500
C947        C  0.07343794  0.56028495  0.88134156     0.82300
N948        N  0.10133004  0.59321208  0.87258802    -0.80200
Zr949      Zr  0.25526660  0.22421492  0.67341794     2.17500
O950        O  0.30125399  0.24715806  0.60948259    -0.51800
O951        O  0.21349467  0.17950287  0.63046601    -0.75000
O952        O  0.29245108  0.14953697  0.66258120    -0.81800
O953        O  0.14715516  0.30091876  0.68428007    -0.83600
O954        O  0.31190895  0.11650884  0.72646540    -0.79200
O955        O  0.18937591  0.25952093  0.63521900    -0.90800
O956        O  0.16395773  0.15574086  0.68453974    -0.76800
O957        O  0.25247336  0.16956828  0.72699665    -0.86300
O958        O  0.18718609  0.23276469  0.71648139    -0.86000
O959        O  0.31955254  0.23448763  0.71727866    -0.72700
O960        O  0.25848776  0.29509786  0.70623384    -0.84900
Zr961      Zr  0.24556555  0.25625778  0.84821922     2.26400
Zr962      Zr  0.31370169  0.17890619  0.77285271     2.06300
Zr963      Zr  0.18952910  0.30212182  0.74915707     2.10000
Zr964      Zr  0.18318738  0.17518861  0.76468685     1.78800
O965        O  0.19887250  0.36880705  0.70759521    -0.93700
O966        O  0.19411725  0.09732267  0.76519342    -0.41500
O967        O  0.18282128  0.24470842  0.80242943    -0.78100
O968        O  0.24371093  0.18493008  0.81525624    -0.96800
O969        O  0.31109172  0.24769021  0.80439961    -0.90100
O970        O  0.25138130  0.31215384  0.79460120    -0.92900
C971        C  0.17812545  0.16040933  0.64283835     1.00800
C972        C  0.15380774  0.28283774  0.64656674     1.13800
C973        C  0.30761186  0.11618363  0.68466182     1.04500
O974        O  0.31820656  0.12098733  0.82698078    -0.95100
O975        O  0.36679614  0.20567938  0.82341438    -0.90800
O976        O  0.31890087  0.22772600  0.87954050    -0.84000
C977        C  0.35893602  0.21608407  0.86396567     1.11200
O978        O  0.35806296  0.33764981  0.69131821    -0.97100
Zr979      Zr  0.31990793  0.30376167  0.75499003     1.88900
O980        O  0.28715285  0.30501392  0.88795719    -0.73700
O981        O  0.38882346  0.16299910  0.74187733    -0.53000
O982        O  0.40009986  0.28962401  0.75467978    -0.97700
O983        O  0.31236601  0.38211087  0.75677911    -0.54900
O984        O  0.34048181  0.31891761  0.83375820    -0.74200
C985        C  0.32523613  0.31852253  0.87508040     0.98100
O986        O  0.21065051  0.22900010  0.91680196    -0.63000
O987        O  0.11154330  0.31137041  0.77434386    -0.57800
O988        O  0.19757656  0.32255975  0.86684603    -0.94500
O989        O  0.17525048  0.35601828  0.80411882    -0.93000
O990        O  0.10276018  0.18793689  0.77054533    -0.93300
O991        O  0.14499984  0.13890152  0.82670232    -0.92100
C992        C  0.17928434  0.35473807  0.84591281     1.17000
H993        H  0.15962496  0.22865158  0.70210802     0.32900
H994        H  0.24212073  0.16341471  0.83834765     0.43800
H995        H  0.25326214  0.34021320  0.80788372     0.37300
H996        H  0.34647150  0.23070508  0.69876990     0.33800
H997        H  0.17273538  0.08640321  0.74390679     0.25500
H998        H  0.39523639  0.13288518  0.75055380     0.31500
H999        H  0.40348787  0.25814602  0.75039060     0.37400
H1000       H  0.09068542  0.16947230  0.74728809     0.31900
H1001       H  0.10081964  0.33712467  0.75839907     0.30700
H1002       H  0.17510789  0.38843379  0.71993786     0.32400
H1003       H  0.31237819  0.39013408  0.78858335     0.31400
H1004       H  0.15585942  0.15315418  0.85346793     0.35400
H1005       H  0.19761356  0.20125292  0.90841020     0.28100
H1006       H  0.28075215  0.24731374  0.58461130     0.32300
H1007       H  0.37952128  0.35774376  0.70389763     0.35200
H1008       H  0.09595232  0.28704302  0.76095066     0.27800
H1009       H  0.23606288  0.22088300  0.93514377     0.40700
H1010       H  0.35058859  0.11658122  0.83089844     0.30700
H1011       H  0.22385006  0.09205159  0.75042615     0.38400
H1012       H  0.28151907  0.38837406  0.74793033     0.30200
H1013       H  0.38631126  0.16196458  0.70925360     0.30300
H1014       H  0.32181755  0.22246364  0.60308562     0.30500
Zr1015     Zr  0.22914644  0.67342708  0.27557584     2.17500
O1016       O  0.25594734  0.60723850  0.30907969    -0.51800
O1017       O  0.17889951  0.63771938  0.23123061    -0.75000
O1018       O  0.16273407  0.65982275  0.32794301    -0.81800
O1019       O  0.31301103  0.67992973  0.17009023    -0.83600
O1020       O  0.11865743  0.71898382  0.32580221    -0.79200
O1021       O  0.26406015  0.63535388  0.20708507    -0.90800
O1022       O  0.16932656  0.68625027  0.17561454    -0.76800
O1023       O  0.16856712  0.72324635  0.26588814    -0.86300
O1024       O  0.24497013  0.71708074  0.21271050    -0.86000
O1025       O  0.23287027  0.71863247  0.34123040    -0.72700
O1026       O  0.30358846  0.70206991  0.28427262    -0.84900
Zr1027     Zr  0.26604541  0.83989574  0.26386733     2.26400
Zr1028     Zr  0.17699692  0.77135397  0.32505808     2.06300
Zr1029     Zr  0.31873522  0.74172500  0.21690235     2.10000
Zr1030     Zr  0.18585147  0.76239635  0.19981773     1.78800
O1031       O  0.38080713  0.69265549  0.23019529    -0.93700
O1032       O  0.10471013  0.76785384  0.20695674    -0.41500
O1033       O  0.26066654  0.79407415  0.20095232    -0.78100
O1034       O  0.18981002  0.81452418  0.25961025    -0.96800
O1035       O  0.25005283  0.77166666  0.29254849    -0.90100
O1036       O  0.32486375  0.79123179  0.27790224    -0.92900
C1037       C  0.16986058  0.64721290  0.19163773     1.00800
C1038       C  0.29008853  0.64560260  0.17277228     1.13800
C1039       C  0.12562952  0.68062389  0.33848656     1.04500
O1040       O  0.12667443  0.83377574  0.32694123    -0.95100
O1041       O  0.23152187  0.79921796  0.37070868    -0.90800
O1042       O  0.23214543  0.86272015  0.33908608    -0.84000
C1043       C  0.22818287  0.83914348  0.37452022     1.11200
O1044       O  0.33927269  0.69012232  0.37479711    -0.97100
Zr1045     Zr  0.30509219  0.75418784  0.34356682     1.88900
O1046       O  0.30480997  0.88194868  0.31430703    -0.73700
O1047       O  0.14856209  0.76779103  0.40196857    -0.53000
O1048       O  0.28319094  0.76033350  0.42256457    -0.97700
O1049       O  0.38551037  0.74083507  0.33820178    -0.54900
O1050       O  0.32293925  0.83106234  0.36501648    -0.74200
C1051       C  0.32101337  0.87081462  0.35085316     0.98100
O1052       O  0.23551053  0.90021876  0.22296941    -0.63000
O1053       O  0.34223371  0.76021164  0.14081852    -0.57800
O1054       O  0.33635995  0.85252406  0.21475591    -0.94500
O1055       O  0.37822843  0.79114056  0.20830426    -0.93000
O1056       O  0.20052291  0.75430351  0.12007519    -0.93300
O1057       O  0.15995808  0.82420951  0.15797898    -0.92100
C1058       C  0.37296283  0.83124863  0.20217113     1.17000
H1059       H  0.24215405  0.70418662  0.18432435     0.32900
H1060       H  0.16877141  0.83793415  0.25621904     0.43800
H1061       H  0.35303483  0.80494745  0.28199905     0.37300
H1062       H  0.22569632  0.70312738  0.36829188     0.33800
H1063       H  0.09479826  0.73813014  0.21316905     0.25500
H1064       H  0.11603017  0.76341704  0.40044458     0.31500
H1065       H  0.30648793  0.77821390  0.43535242     0.37400
H1066       H  0.23005336  0.76751896  0.11425755     0.31900
H1067       H  0.36547682  0.73853729  0.13183391     0.30700
H1068       H  0.40449488  0.70094348  0.20803076     0.32400
H1069       H  0.39856800  0.76733661  0.35002348     0.31400
H1070       H  0.18066364  0.84748144  0.16513024     0.35400
H1071       H  0.24928684  0.92587538  0.23581256     0.28100
H1072       H  0.22963583  0.58833037  0.31054317     0.32300
H1073       H  0.31402777  0.67052001  0.38096805     0.35200
H1074       H  0.31643348  0.75343027  0.12277978     0.27800
H1075       H  0.24965873  0.89753105  0.19276286     0.40700
H1076       H  0.09684330  0.82167352  0.32241523     0.30700
H1077       H  0.09844160  0.78355390  0.23519765     0.38400
H1078       H  0.39384771  0.74117727  0.30605728     0.30200
H1079       H  0.16044177  0.74025800  0.41340936     0.30300
H1080       H  0.26052854  0.61508609  0.34037484     0.30500
Zr1081     Zr  0.67430953  0.24355155  0.25356572     2.17500
O1082       O  0.60785631  0.27867634  0.28700058    -0.51800
O1083       O  0.63203438  0.19747400  0.21179019    -0.75000
O1084       O  0.65247735  0.28553874  0.18621589    -0.81800
O1085       O  0.69509646  0.14169884  0.32856329    -0.83600
O1086       O  0.71414424  0.28926628  0.14061327    -0.79200
O1087       O  0.64193751  0.17535499  0.28837603    -0.90800
O1088       O  0.68707281  0.15085938  0.18607059    -0.76800
O1089       O  0.72276273  0.23815921  0.18872604    -0.86300
O1090       O  0.72442877  0.18442639  0.26044467    -0.86000
O1091       O  0.71652685  0.30975476  0.25490578    -0.72700
O1092       O  0.70842052  0.25281206  0.32470664    -0.84900
Zr1093     Zr  0.85156836  0.24341255  0.27241725     2.26400
Zr1094     Zr  0.76988008  0.29744586  0.19474521     2.06300
Zr1095     Zr  0.75625314  0.19043033  0.33051696     2.10000
Zr1096     Zr  0.76772995  0.17637051  0.19654659     1.78800
O1097       O  0.71081546  0.20582601  0.39777805    -0.93700
O1098       O  0.76631172  0.18976542  0.11694120    -0.41500
O1099       O  0.80736082  0.17998673  0.26664150    -0.78100
O1100       O  0.81954131  0.23634929  0.19955655    -0.96800
O1101       O  0.77744762  0.26584618  0.26494773    -0.90100
O1102       O  0.80258789  0.25277941  0.33568180    -0.92900
C1103       C  0.64489337  0.16217635  0.19406952     1.00800
C1104       C  0.65729775  0.14250682  0.31047317     1.13800
C1105       C  0.67245028  0.29524115  0.14833089     1.04500
O1106       O  0.83119570  0.30346204  0.13928509    -0.95100
O1107       O  0.80220709  0.34633956  0.24372960    -0.90800
O1108       O  0.86931981  0.31610214  0.23857519    -0.84000
C1109       C  0.84360051  0.35008056  0.23772464     1.11200
O1110       O  0.68763744  0.33812324  0.36103777    -0.97100
Zr1111     Zr  0.75692045  0.31388104  0.32312997     1.88900
O1112       O  0.89209340  0.29986473  0.30662564    -0.73700
O1113       O  0.75574792  0.37038050  0.16850664    -0.53000
O1114       O  0.75738773  0.39006135  0.30286691    -0.97700
O1115       O  0.75080325  0.31249244  0.40398349    -0.54900
O1116       O  0.83414323  0.34132612  0.33416823    -0.74200
C1117       C  0.87667420  0.33319595  0.32714111     0.98100
O1118       O  0.91541868  0.20437674  0.23848865    -0.63000
O1119       O  0.77878922  0.11812971  0.35303897    -0.57800
O1120       O  0.87580561  0.19825511  0.33776372    -0.94500
O1121       O  0.81461436  0.18041649  0.38069247    -0.93000
O1122       O  0.76765635  0.09849462  0.20525164    -0.93300
O1123       O  0.82957556  0.13876632  0.15751098    -0.92100
C1124       C  0.85670011  0.18158037  0.37348694     1.17000
H1125       H  0.71289134  0.15629442  0.25671189     0.32900
H1126       H  0.84236270  0.23436515  0.17605276     0.43800
H1127       H  0.81755537  0.25664942  0.36306901     0.37300
H1128       H  0.69787165  0.33480161  0.25020620     0.33800
H1129       H  0.73433491  0.19409002  0.11093627     0.25500
H1130       H  0.75363968  0.36767907  0.13593268     0.31500
H1131       H  0.72771663  0.39599704  0.29083792     0.37400
H1132       H  0.77094867  0.09381888  0.23744501     0.31900
H1133       H  0.75687176  0.10964680  0.37688684     0.30700
H1134       H  0.70537221  0.17734223  0.41150482     0.32400
H1135       H  0.77885775  0.32543040  0.41339514     0.31400
H1136       H  0.85309778  0.13678797  0.17950954     0.35400
H1137       H  0.93757541  0.22692837  0.23136936     0.28100
H1138       H  0.60673723  0.30721409  0.27246578     0.32300
H1139       H  0.66955041  0.35019110  0.33717175     0.35200
H1140       H  0.77267778  0.09929461  0.32757492     0.27800
H1141       H  0.92826961  0.18794879  0.26313259     0.40700
H1142       H  0.81637140  0.30801588  0.11091535     0.30700
H1143       H  0.77956788  0.21854756  0.11276938     0.38400
H1144       H  0.75355648  0.28176089  0.41213539     0.30200
H1145       H  0.72492209  0.37749360  0.17958794     0.30300
H1146       H  0.61571948  0.28495970  0.31787460     0.30500
C1147       C  0.17306292  0.13835403  0.40537706     0.79700
N1148       N  0.16805097  0.15523818  0.44793080    -0.78600
C1149       C  0.15568560  0.12872659  0.48275755     0.82200
N1150       N  0.14369560  0.08817728  0.47295049    -0.78500
C1151       C  0.14309282  0.07422274  0.43058033     0.82300
N1152       N  0.16201543  0.09743957  0.39767065    -0.80200
C1153       C  0.15169468  0.14618721  0.60533585     0.79700
N1154       N  0.11185638  0.12806605  0.61434998    -0.78600
C1155       C  0.08597812  0.11700667  0.58084946     0.82200
N1156       N  0.09680431  0.13004645  0.53891544    -0.78500
C1157       C  0.13834204  0.14419423  0.52756717     0.82300
N1158       N  0.16622265  0.15218857  0.56152077    -0.80200
Zr1159     Zr  0.25151835  0.34059092  0.25132705     2.17500
O1160       O  0.28836905  0.40198171  0.28293757    -0.51800
O1161       O  0.21938991  0.38557726  0.20008532    -0.75000
O1162       O  0.28805015  0.35642903  0.17502174    -0.81800
O1163       O  0.13294267  0.32193557  0.31517110    -0.83600
O1164       O  0.31492033  0.29643113  0.13901832    -0.79200
O1165       O  0.17921602  0.37286794  0.28508085    -0.90800
O1166       O  0.17382801  0.33702545  0.16855733    -0.76800
O1167       O  0.25961052  0.29166372  0.19361667    -0.86300
O1168       O  0.18569498  0.29926256  0.24814336    -0.86000
O1169       O  0.31866952  0.29874804  0.26344414    -0.72700
O1170       O  0.24883758  0.30172820  0.32037820    -0.84900
Zr1171     Zr  0.25209478  0.16987699  0.26442015     2.26400
Zr1172     Zr  0.32447908  0.25003396  0.20121672     2.06300
Zr1173     Zr  0.18176070  0.26056155  0.31603336     2.10000
Zr1174     Zr  0.19326425  0.25744075  0.18468623     1.78800
O1175       O  0.17230402  0.29498104  0.38865152    -0.93700
O1176       O  0.21522184  0.26590472  0.10639847    -0.41500
O1177       O  0.18679050  0.21409543  0.25195095    -0.78100
O1178       O  0.25720203  0.20904131  0.19521321    -0.96800
O1179       O  0.31786472  0.20985471  0.26716476    -0.90100
O1180       O  0.24690153  0.21773230  0.32611545    -0.92900
C1181       C  0.18696234  0.37641872  0.17655463     1.00800
C1182       C  0.14084297  0.36034037  0.30275516     1.13800
C1183       C  0.30466905  0.33637490  0.13955661     1.04500
O1184       O  0.34992142  0.21192011  0.13393202    -0.95100
O1185       O  0.37569034  0.19346457  0.21989356    -0.90800
O1186       O  0.32758096  0.13905965  0.23473136    -0.84000
C1187       C  0.36768022  0.15356722  0.22460403     1.11200
O1188       O  0.35371295  0.30608441  0.37166243    -0.97100
Zr1189     Zr  0.31306705  0.25402874  0.32931805     1.88900
O1190       O  0.28292329  0.12357773  0.31590966    -0.73700
O1191       O  0.39356821  0.29066904  0.19898435    -0.53000
O1192       O  0.39409813  0.24808129  0.32046759    -0.97700
O1193       O  0.29516663  0.25971024  0.40881415    -0.54900
O1194       O  0.32365157  0.17484063  0.34956174    -0.74200
C1195       C  0.31110831  0.13498138  0.34348176     0.98100
O1196       O  0.21779467  0.11075528  0.22617500    -0.63000
O1197       O  0.10762710  0.23001624  0.31327393    -0.57800
O1198       O  0.20481992  0.14721307  0.33174500    -0.94500
O1199       O  0.17076414  0.20398787  0.36839947    -0.93000
O1200       O  0.11211326  0.25362432  0.19052631    -0.93300
O1201       O  0.16419605  0.20088313  0.13865136    -0.92100
C1202       C  0.18288436  0.16458050  0.36587849     1.17000
H1203       H  0.15832209  0.31383263  0.24156814     0.32900
H1204       H  0.26058304  0.18916032  0.17060472     0.43800
H1205       H  0.24830865  0.20489735  0.35499836     0.37300
H1206       H  0.34410186  0.31734882  0.26452017     0.33800
H1207       H  0.21867042  0.29725988  0.10199122     0.25500
H1208       H  0.41186959  0.27775266  0.17411160     0.31500
H1209       H  0.40061339  0.24983230  0.28803995     0.37400
H1210       H  0.10145603  0.28247343  0.18143778     0.31900
H1211       H  0.08961991  0.24535453  0.33684862     0.30700
H1212       H  0.18877188  0.32230101  0.38600044     0.32400
H1213       H  0.30414019  0.23151554  0.42113687     0.31400
H1214       H  0.17844018  0.17408507  0.14927714     0.35400
H1215       H  0.18528432  0.11640654  0.23053518     0.28100
H1216       H  0.26906537  0.42694822  0.27576867     0.32300
H1217       H  0.35195842  0.33302379  0.35426858     0.35200
H1218       H  0.09587452  0.24095039  0.28517252     0.27800
H1219       H  0.22433306  0.11639784  0.19424310     0.40700
H1220       H  0.33768351  0.18262850  0.13711422     0.30700
H1221       H  0.24604994  0.25400897  0.10357083     0.38400
H1222       H  0.26212685  0.26017432  0.41165842     0.30200
H1223       H  0.38534604  0.31971193  0.18827384     0.30300
H1224       H  0.31568316  0.40561214  0.26367769     0.30500
loop_ 
_geom_bond_atom_site_label_1 
_geom_bond_atom_site_label_2 
_geom_bond_distance 
_geom_bond_site_symmetry_2 
_ccdc_geom_bond_type 
N1            C6   1.341       .  A
N1            C5   1.345       .  A
N1           H33   1.039       .  S
N2            C9   1.337       .  A
N2           C10   1.336       .  A
N3            C8   1.346       .  A
N3            C7   1.351       .  A
N3           H34   1.039       .  S
N4           C11   1.346       .  A
N4           C12   1.343       .  A
C5           C13   1.384       .  A
C5           C21   1.393       .  A
C6           C22   1.399       .  A
C6           C14   1.388       .  A
C7           C15   1.391       .  A
C7           C24   1.418       .  A
C8           C23   1.403       .  A
C8           C16   1.384       .  A
C9           C21   1.394       .  A
C9           C17   1.387       .  A
C10          C24   1.395       .  A
C10          C18   1.388       .  A
C11          C19   1.380       .  A
C11          C22   1.393       .  A
C12          C20   1.393       .  A
C12          C23   1.408       .  A
C13          C14   1.360       .  A
C13          H25   1.083       .  S
C14          H26   1.076       .  S
C15          C16   1.375       .  A
C15          H27   1.081       .  S
C16          H28   1.082       .  S
C17          C18   1.366       .  A
C17          H29   1.081       .  S
C18          H30   1.080       .  S
C19          C20   1.367       .  A
C19          H31   1.083       .  S
C20          H32   1.080       .  S
C21         C525   1.441       .  S
C22         C467   1.449       .  S
C23         C417   1.452       .  S
C24         C489   1.461       .  S
N35          C40   1.343       .  A
N35          C39   1.342       .  A
N35          H67   1.043       .  S
N36          C43   1.347       .  A
N36          C44   1.345       .  A
N37          C42   1.356       .  A
N37          C41   1.358       .  A
N37          H68   1.036       .  S
N38          C45   1.355       .  A
N38          C46   1.347       .  A
C39          C47   1.380       .  A
C39          C55   1.386       .  A
C40          C56   1.402       .  A
C40          C48   1.392       .  A
C41          C49   1.389       .  A
C41          C58   1.428       .  A
C42          C57   1.421       .  A
C42          C50   1.386       .  A
C43          C55   1.407       .  A
C43          C51   1.386       .  A
C44          C58   1.404       .  A
C44          C52   1.387       .  A
C45          C53   1.382       .  A
C45          C56   1.410       .  A
C46          C54   1.392       .  A
C46          C57   1.421       .  A
C47          C48   1.372       .  A
C47          H59   1.082       .  S
C48          H60   1.080       .  S
C49          C50   1.381       .  A
C49          H61   1.081       .  S
C50          H62   1.082       .  S
C51          C52   1.371       .  A
C51          H63   1.079       .  S
C52          H64   1.082       .  S
C53          C54   1.379       .  A
C53          H65   1.082       .  S
C54          H66   1.082       .  S
C55         C537   1.459       .  S
C56         C455   1.484       .  S
C57         C429   1.480       .  S
C58         C479   1.477       .  S
N69          C74   1.346       .  A
N69          C73   1.350       .  A
N69         H101   1.037       .  S
N70          C77   1.350       .  A
N70          C78   1.345       .  A
N71          C76   1.353       .  A
N71          C75   1.355       .  A
N71         H102   1.039       .  S
N72          C79   1.352       .  A
N72          C80   1.354       .  A
C73          C81   1.388       .  A
C73          C89   1.410       .  A
C74          C90   1.401       .  A
C74          C82   1.385       .  A
C75          C83   1.384       .  A
C75          C92   1.411       .  A
C76          C91   1.420       .  A
C76          C84   1.391       .  A
C77          C89   1.398       .  A
C77          C85   1.378       .  A
C78          C92   1.414       .  A
C78          C86   1.393       .  A
C79          C87   1.388       .  A
C79          C90   1.420       .  A
C80          C88   1.385       .  A
C80          C91   1.415       .  A
C81          C82   1.363       .  A
C81          H93   1.077       .  S
C82          H94   1.082       .  S
C83          C84   1.372       .  A
C83          H95   1.082       .  S
C84          H96   1.080       .  S
C85          C86   1.366       .  A
C85          H97   1.083       .  S
C86          H98   1.074       .  S
C87          C88   1.377       .  A
C87          H99   1.081       .  S
C88         H100   1.082       .  S
C89         C519   1.470       .  S
C90         C461   1.466       .  S
C91         C411   1.484       .  S
C92         C485   1.474       .  S
N103        C108   1.347       .  A
N103        C107   1.349       .  A
N103        H135   1.040       .  S
N104        C111   1.347       .  A
N104        C112   1.345       .  A
N105        C110   1.353       .  A
N105        C109   1.354       .  A
N105        H136   1.041       .  S
N106        C113   1.345       .  A
N106        C114   1.346       .  A
C107        C115   1.388       .  A
C107        C123   1.406       .  A
C108        C124   1.401       .  A
C108        C116   1.387       .  A
C109        C117   1.386       .  A
C109        C126   1.413       .  A
C110        C125   1.415       .  A
C110        C118   1.389       .  A
C111        C123   1.399       .  A
C111        C119   1.381       .  A
C112        C126   1.410       .  A
C112        C120   1.392       .  A
C113        C121   1.385       .  A
C113        C124   1.400       .  A
C114        C122   1.387       .  A
C114        C125   1.399       .  A
C115        C116   1.367       .  A
C115        H127   1.082       .  S
C116        H128   1.083       .  S
C117        C118   1.372       .  A
C117        H129   1.082       .  S
C118        H130   1.082       .  S
C119        C120   1.370       .  A
C119        H131   1.083       .  S
C120        H132   1.080       .  S
C121        C122   1.368       .  A
C121        H133   1.081       .  S
C122        H134   1.083       .  S
C123        C531   1.463       .  S
C124        C473   1.451       .  S
C125        C425   1.464       .  S
C126        C447   1.472       .  S
N137        C142   1.343       .  A
N137        C141   1.338       .  A
N137        H169   1.045       .  S
N138        C145   1.346       .  A
N138        C146   1.341       .  A
N139        C144   1.348       .  A
N139        C143   1.352       .  A
N139        H170   1.039       .  S
N140        C147   1.348       .  A
N140        C148   1.338       .  A
C141        C149   1.382       .  A
C141        C157   1.387       .  A
C142        C158   1.402       .  A
C142        C150   1.391       .  A
C143        C151   1.387       .  A
C143        C160   1.410       .  A
C144        C159   1.407       .  A
C144        C152   1.387       .  A
C145        C157   1.399       .  A
C145        C153   1.384       .  A
C146        C160   1.404       .  A
C146        C154   1.389       .  A
C147        C155   1.384       .  A
C147        C158   1.401       .  A
C148        C156   1.390       .  A
C148        C159   1.404       .  A
C149        C150   1.372       .  A
C149        H161   1.082       .  S
C150        H162   1.080       .  S
C151        C152   1.376       .  A
C151        H163   1.083       .  S
C152        H164   1.083       .  S
C153        C154   1.371       .  A
C153        H165   1.081       .  S
C154        H166   1.082       .  S
C155        C156   1.373       .  A
C155        H167   1.081       .  S
C156        H168   1.082       .  S
C157        C551   1.465       .  S
C158        C515   1.470       .  S
C159        C443   1.449       .  S
C160        C501   1.460       .  S
N171        C176   1.344       .  A
N171        C175   1.343       .  A
N171        H203   1.040       .  S
N172        C179   1.347       .  A
N172        C180   1.346       .  A
N173        C178   1.353       .  A
N173        C177   1.348       .  A
N173        H204   1.038       .  S
N174        C181   1.344       .  A
N174        C182   1.342       .  A
C175        C183   1.381       .  A
C175        C191   1.390       .  A
C176        C192   1.405       .  A
C176        C184   1.392       .  A
C177        C185   1.389       .  A
C177        C194   1.414       .  A
C178        C193   1.410       .  A
C178        C186   1.384       .  A
C179        C191   1.409       .  A
C179        C187   1.388       .  A
C180        C194   1.396       .  A
C180        C188   1.383       .  A
C181        C189   1.384       .  A
C181        C192   1.394       .  A
C182        C190   1.389       .  A
C182        C193   1.403       .  A
C183        C184   1.372       .  A
C183        H195   1.083       .  S
C184        H196   1.079       .  S
C185        C186   1.380       .  A
C185        H197   1.082       .  S
C186        H198   1.082       .  S
C187        C188   1.361       .  A
C187        H199   1.074       .  S
C188        H200   1.083       .  S
C189        C190   1.364       .  A
C189        H201   1.082       .  S
C190        H202   1.079       .  S
C191        C545   1.456       .  S
C192        C497   1.450       .  S
C193        C437   1.466       .  S
C194        C507   1.457       .  S
N205        C210   1.348   1_455  A
N205        C209   1.352       .  A
N205        H237   1.040       .  S
N206        C213   1.348       .  A
N206        C214   1.345   1_554  A
N207        C212   1.351       .  A
N207        C211   1.351   1_655  A
N207        H238   1.035       .  S
N208        C215   1.351       .  A
N208        C216   1.353       .  A
C209        C217   1.390       .  A
C209        C225   1.414       .  A
C210        C226   1.400       .  A
C210        C218   1.382   1_655  A
C211        C219   1.380   1_455  A
C211        C228   1.403       .  A
C212        C227   1.424       .  A
C212        C220   1.395       .  A
C213        C225   1.395       .  A
C213        C221   1.379       .  A
C214        C228   1.413       .  A
C214        C222   1.390       .  A
C215        C223   1.387       .  A
C215        C226   1.419       .  A
C216        C224   1.384       .  A
C216        C227   1.416   1_554  A
C217        C218   1.365       .  A
C217        H229   1.074       .  S
C218        H230   1.082   1_455  S
C219        C220   1.368       .  A
C219        H231   1.083       .  S
C220        H232   1.076       .  S
C221        C222   1.361   1_554  A
C221        H233   1.082       .  S
C222        H234   1.072       .  S
C223        C224   1.374       .  A
C223        H235   1.079       .  S
C224        H236   1.082       .  S
C225        C561   1.469       .  S
C226        C611   1.473       .  S
C227        C647   1.481       .  S
C228        C947   1.467       .  S
N239        C244   1.347       .  A
N239        C243   1.349       .  A
N239        H271   1.036       .  S
N240        C247   1.347   1_565  A
N240        C248   1.344       .  A
N241        C246   1.355       .  A
N241        C245   1.356   1_556  A
N241        H272   1.040       .  S
N242        C249   1.352       .  A
N242        C250   1.352       .  A
C243        C251   1.389       .  A
C243        C259   1.414       .  A
C244        C260   1.401   1_554  A
C244        C252   1.383       .  A
C245        C253   1.385   1_554  A
C245        C262   1.415       .  A
C246        C261   1.422       .  A
C246        C254   1.390       .  A
C247        C259   1.397       .  A
C247        C255   1.380   1_545  A
C248        C262   1.410       .  A
C248        C256   1.393       .  A
C249        C257   1.389       .  A
C249        C260   1.421       .  A
C250        C258   1.383       .  A
C250        C261   1.410   1_545  A
C251        C252   1.363       .  A
C251        H263   1.073       .  S
C252        H264   1.082       .  S
C253        C254   1.374       .  A
C253        H265   1.082       .  S
C254        H266   1.080       .  S
C255        C256   1.368       .  A
C255        H267   1.083       .  S
C256        H268   1.078       .  S
C257        C258   1.374       .  A
C257        H269   1.080       .  S
C258        H270   1.082       .  S
C259        C575   1.466       .  S
C260        C587   1.470       .  S
C261        C669   1.484       .  S
C262        C597   1.472       .  S
N273        C278   1.351   1_655  A
N273        C277   1.349       .  A
N273        H305   1.039       .  S
N274        C281   1.347       .  A
N274        C282   1.344   1_554  A
N275        C280   1.353   1_655  A
N275        C279   1.353       .  A
N275        H306   1.035   1_556  S
N276        C283   1.344       .  A
N276        C284   1.344       .  A
C277        C285   1.393       .  A
C277        C293   1.415       .  A
C278        C294   1.393       .  A
C278        C286   1.378   1_455  A
C279        C287   1.387       .  A
C279        C296   1.412       .  A
C280        C295   1.415       .  A
C280        C288   1.388       .  A
C281        C293   1.398       .  A
C281        C289   1.383       .  A
C282        C296   1.411       .  A
C282        C290   1.392   1_556  A
C283        C291   1.387       .  A
C283        C294   1.401       .  A
C284        C292   1.386       .  A
C284        C295   1.398   1_554  A
C285        C286   1.356       .  A
C285        H297   1.072       .  S
C286        H298   1.083   1_655  S
C287        C288   1.370   1_655  A
C287        H299   1.083       .  S
C288        H300   1.082       .  S
C289        C290   1.367       .  A
C289        H301   1.083       .  S
C290        H302   1.081   1_554  S
C291        C292   1.356       .  A
C291        H303   1.078       .  S
C292        H304   1.083   1_554  S
C293        C605   1.460       .  S
C294        C555   1.454       .  S
C295        C941   1.458       .  S
C296        C641   1.461       .  S
N307        C312   1.349   1_565  A
N307        C311   1.347       .  A
N307        H339   1.040   1_565  S
N308        C315   1.347   1_556  A
N308        C316   1.346       .  A
N309        C314   1.351       .  A
N309        C313   1.353   1_545  A
N309        H340   1.038       .  S
N310        C317   1.347       .  A
N310        C318   1.345   1_554  A
C311        C319   1.390       .  A
C311        C327   1.406       .  A
C312        C328   1.398       .  A
C312        C320   1.385       .  A
C313        C321   1.387   1_565  A
C313        C330   1.411       .  A
C314        C329   1.411       .  A
C314        C322   1.388       .  A
C315        C327   1.403       .  A
C315        C323   1.385       .  A
C316        C330   1.405       .  A
C316        C324   1.387       .  A
C317        C325   1.381       .  A
C317        C328   1.397       .  A
C318        C326   1.392   1_556  A
C318        C329   1.407       .  A
C319        C320   1.364   1_565  A
C319        H331   1.082       .  S
C320        H332   1.082       .  S
C321        C322   1.369       .  A
C321        H333   1.082   1_545  S
C322        H334   1.082       .  S
C323        C324   1.372   1_554  A
C323        H335   1.083       .  S
C324        H336   1.082       .  S
C325        C326   1.366       .  A
C325        H337   1.081       .  S
C326        H338   1.081   1_554  S
C327        C591   1.458       .  S
C328        C569   1.457       .  S
C329        C579   1.458       .  S
C330        C665   1.465       .  S
N341        C346   1.343       .  A
N341        C345   1.343   1_655  A
N341        H373   1.042       .  S
N342        C349   1.347   1_565  A
N342        C350   1.343       .  A
N343        C348   1.354   1_455  A
N343        C347   1.352       .  A
N343        H374   1.037       .  S
N344        C351   1.346       .  A
N344        C352   1.341       .  A
C345        C353   1.379   1_455  A
C345        C361   1.386       .  A
C346        C362   1.405       .  A
C346        C354   1.393       .  A
C347        C355   1.391       .  A
C347        C364   1.421       .  A
C348        C363   1.414       .  A
C348        C356   1.384   1_655  A
C349        C361   1.404       .  A
C349        C357   1.386       .  A
C350        C364   1.401       .  A
C350        C358   1.387       .  A
C351        C359   1.379       .  A
C351        C362   1.390   1_565  A
C352        C360   1.391       .  A
C352        C363   1.407       .  A
C353        C354   1.368       .  A
C353        H365   1.083   1_655  S
C354        H366   1.077       .  S
C355        C356   1.382       .  A
C355        H367   1.082       .  S
C356        H368   1.082       .  S
C357        C358   1.364   1_545  A
C357        H369   1.079       .  S
C358        H370   1.082       .  S
C359        C360   1.362       .  A
C359        H371   1.083       .  S
C360        H372   1.076       .  S
C361       C1155   1.454       .  S
C362        C621   1.454       .  S
C363        C659   1.468       .  S
C364        C633   1.461       .  S
N375        C380   1.346   1_565  A
N375        C379   1.345       .  A
N375        H407   1.035       .  S
N376        C383   1.349       .  A
N376        C384   1.342   1_455  A
N377        C382   1.358   1_565  A
N377        C381   1.354       .  A
N377        H408   1.039       .  S
N378        C385   1.344       .  A
N378        C386   1.345   1_455  A
C379        C387   1.388       .  A
C379        C395   1.406       .  A
C380        C396   1.395       .  A
C380        C388   1.383   1_545  A
C381        C389   1.385       .  A
C381        C398   1.414       .  A
C382        C397   1.424       .  A
C382        C390   1.389       .  A
C383        C395   1.398       .  A
C383        C391   1.381       .  A
C384        C398   1.410       .  A
C384        C392   1.394       .  A
C385        C393   1.390       .  A
C385        C396   1.411       .  A
C386        C394   1.384   1_655  A
C386        C397   1.400       .  A
C387        C388   1.354       .  A
C387        H399   1.073       .  S
C388        H400   1.083   1_565  S
C389        C390   1.375   1_565  A
C389        H401   1.082       .  S
C390        H402   1.082       .  S
C391        C392   1.370   1_455  A
C391        H403   1.082       .  S
C392        H404   1.081       .  S
C393        C394   1.369       .  A
C393        H405   1.079       .  S
C394        H406   1.082   1_455  S
C395        C627   1.460       .  S
C396       C1151   1.452       .  S
C397        C615   1.479       .  S
C398        C651   1.461       .  S
C409        N410   1.356       .  A
C409        N414   1.388       .  A
C409        C775   1.505       .  S
N410        C411   1.358       .  A
C411        N412   1.360       .  A
N412        C413   1.364       .  A
C413        N414   1.378       .  A
C413        C419   1.517   1_565  S
C415        N416   1.347       .  A
C415        N420   1.395       .  A
C415        C914   1.491       .  S
N416        C417   1.347       .  A
C417        N418   1.347       .  A
N418        C419   1.352       .  A
C419        N420   1.389       .  A
C421        N422   1.410       .  A
C421        N426   1.351       .  A
C421        C763   1.505       .  S
N422        C423   1.394       .  A
C423        N424   1.355       .  A
C423        C431   1.551   1_655  S
N424        C425   1.344       .  A
C425        N426   1.342       .  A
C427        N428   1.357       .  A
C427        N432   1.406       .  A
C427        C696   1.512       .  S
N428        C429   1.350       .  A
C429        N430   1.348       .  A
N430        C431   1.361       .  A
C431        N432   1.392       .  A
C433        N434   1.390       .  A
C433        N438   1.350       .  A
C433        C762   1.489       .  S
N434        C435   1.384       .  A
C435        N436   1.361       .  A
C435        C441   1.515   1_556  S
N436        C437   1.355       .  A
C437        N438   1.355       .  A
C439        N440   1.392       .  A
C439        N444   1.345       .  A
C439        C828   1.484       .  S
N440        C441   1.385       .  A
C441        N442   1.354       .  A
N442        C443   1.350       .  A
C443        N444   1.347       .  A
C445        N446   1.350       .  A
C445        N450   1.390       .  A
C445        C841   1.489       .  S
N446        C447   1.348       .  A
C447        N448   1.355       .  A
N448        C449   1.359       .  A
C449        N450   1.378       .  A
C449        C453   1.522   1_655  S
C451        N452   1.387       .  A
C451        N456   1.349       .  A
C451       C1039   1.493       .  S
N452        C453   1.383       .  A
C453        N454   1.367       .  A
N454        C455   1.356       .  A
C455        N456   1.347       .  A
C457        N458   1.393       .  A
C457        N462   1.351       .  A
C457        C829   1.480       .  S
N458        C459   1.382       .  A
C459        N460   1.353       .  A
C459        C465   1.514   1_565  S
N460        C461   1.343       .  A
C461        N462   1.344       .  A
C463        N464   1.391       .  A
C463        N468   1.338       .  A
C463       C1104   1.472       .  S
N464        C465   1.385       .  A
C465        N466   1.360       .  A
N466        C467   1.354       .  A
C467        N468   1.347       .  A
C469        N470   1.396       .  A
C469        N474   1.347       .  A
C469        C899   1.491       .  S
N470        C471   1.387       .  A
C471        N472   1.354       .  A
C471        C477   1.521   1_655  S
N472        C473   1.345       .  A
C473        N474   1.343       .  A
C475        N476   1.393       .  A
C475        N480   1.354       .  A
C475        C972   1.478       .  S
N476        C477   1.378       .  A
C477        N478   1.359       .  A
N478        C479   1.349       .  A
C479        N480   1.349       .  A
C481        N482   1.388       .  A
C481        N486   1.352       .  A
C481        C709   1.481       .  S
N482        C483   1.373       .  A
C483        N484   1.362       .  A
C483        C491   1.517   1_565  S
N484        C485   1.355       .  A
C485        N486   1.349       .  A
C487        N488   1.343       .  A
C487        N492   1.397       .  A
C487        C973   1.488       .  S
N488        C489   1.339       .  A
C489        N490   1.344       .  A
N490        C491   1.352       .  A
C491        N492   1.388       .  A
C493        N494   1.389       .  A
C493        N498   1.341       .  A
C493        C893   1.462       .  S
N494        C495   1.372       .  A
C495        N496   1.355       .  A
C495        C503   1.508   1_556  S
N496        C497   1.347       .  A
C497        N498   1.336       .  A
C499        N500   1.354       .  A
C499        N504   1.389       .  A
C499       C1105   1.479       .  S
N500        C501   1.349       .  A
C501        N502   1.344       .  A
N502        C503   1.352       .  A
C503        N504   1.376       .  A
C505        N506   1.348       .  A
C505        N510   1.395       .  A
C505        C697   1.488       .  S
N506        C507   1.341       .  A
C507        N508   1.343       .  A
N508        C509   1.353   1_556  A
C509        N510   1.387   1_554  A
C509        C513   1.516       .  S
C511        N512   1.390       .  A
C511        N516   1.339       .  A
C511       C1038   1.471       .  S
N512        C513   1.381       .  A
C513        N514   1.362       .  A
N514        C515   1.356       .  A
C515        N516   1.344       .  A
C517        N518   1.349       .  A
C517        N522   1.386       .  A
C517       C1051   1.481       .  S
N518        C519   1.348       .  A
C519        N520   1.355       .  A
N520        C521   1.361       .  A
C521        N522   1.375       .  A
C521        C527   1.509   1_565  S
C523        N524   1.339       .  A
C523        N528   1.391       .  A
C523       C1195   1.468       .  S
N524        C525   1.332       .  A
C525        N526   1.346       .  A
N526        C527   1.352       .  A
C527        N528   1.380       .  A
C529        N530   1.351       .  A
C529        N534   1.392       .  A
C529       C1117   1.487       .  S
N530        C531   1.341       .  A
C531        N532   1.347       .  A
N532        C533   1.359       .  A
C533        N534   1.382       .  A
C533        C539   1.519   1_655  S
C535        N536   1.346       .  A
C535        N540   1.394       .  A
C535       C1182   1.471       .  S
N536        C537   1.339       .  A
C537        N538   1.348       .  A
N538        C539   1.357       .  A
C539        N540   1.379       .  A
C541        N542   1.385       .  A
C541        N546   1.347       .  A
C541        C985   1.466       .  S
N542        C543   1.374       .  A
C543        N544   1.357       .  A
C543        C549   1.504   1_556  S
N544        C545   1.351       .  A
C545        N546   1.341       .  A
C547        N548   1.387       .  A
C547        N552   1.342       .  A
C547       C1183   1.467       .  S
N548        C549   1.374       .  A
C549        N550   1.357       .  A
N550        C551   1.349       .  A
C551        N552   1.342       .  A
C553        N554   1.345       .  A
C553        N558   1.382       .  A
C553       C1181   1.479       .  S
N554        C555   1.352       .  A
C555        N556   1.351       .  A
N556        C557   1.352       .  A
C557        N558   1.373       .  A
C557        C563   1.487       .  S
C559        N560   1.350       .  A
C559        N564   1.379       .  A
C559       C1037   1.475       .  S
N560        C561   1.350       .  A
C561        N562   1.354       .  A
N562        C563   1.354       .  A
C563        N564   1.370       .  A
C565        N566   1.392       .  A
C565        N570   1.349       .  A
C565       C1187   1.487       .  S
N566        C567   1.383       .  A
C567        N568   1.355       .  A
C567        C573   1.514       .  S
N568        C569   1.348       .  A
C569        N570   1.347       .  A
C571        N572   1.390       .  A
C571        N576   1.346       .  A
C571       C1103   1.488       .  S
N572        C573   1.379       .  A
C573        N574   1.360       .  A
N574        C575   1.357       .  A
C575        N576   1.349       .  A
C577        N578   1.345       .  A
C577        N582   1.395       .  A
C577        C977   1.483       .  S
N578        C579   1.345       .  A
C579        N580   1.350       .  A
N580        C581   1.355       .  A
C581        N582   1.385       .  A
C581        C585   1.520       .  S
C583        N584   1.395       .  A
C583        N588   1.347       .  A
C583        C894   1.486       .  S
N584        C585   1.384       .  A
C585        N586   1.358       .  A
N586        C587   1.349       .  A
C587        N588   1.344       .  A
C589        N590   1.350       .  A
C589        N594   1.394       .  A
C589       C1058   1.487       .  S
N590        C591   1.347       .  A
C591        N592   1.347       .  A
N592        C593   1.355       .  A
C593        N594   1.382       .  A
C593        C599   1.523       .  S
C595        N596   1.351       .  A
C595        N600   1.392       .  A
C595        C827   1.488       .  S
N596        C597   1.348       .  A
C597        N598   1.352       .  A
N598        C599   1.359       .  A
C599        N600   1.376       .  A
C601        N602   1.390       .  A
C601        N606   1.346       .  A
C601       C1109   1.477       .  S
N602        C603   1.387       .  A
C603        N604   1.355       .  A
C603        C609   1.510       .  S
N604        C605   1.351       .  A
C605        N606   1.345       .  A
C607        N608   1.388       .  A
C607        N612   1.347       .  A
C607        C848   1.483       .  S
N608        C609   1.379       .  A
C609        N610   1.358       .  A
N610        C611   1.353       .  A
C611        N612   1.348       .  A
C613        N614   1.361       .  A
C613        N618   1.389       .  A
C613       C1124   1.489       .  S
N614        C615   1.356       .  A
C615        N616   1.347       .  A
N616        C617   1.352       .  A
C617        N618   1.375       .  A
C617        C623   1.507       .  S
C619        N620   1.343       .  A
C619        N624   1.387       .  A
C619        C907   1.464       .  S
N620        C621   1.338       .  A
C621        N622   1.351       .  A
N622        C623   1.357       .  A
C623        N624   1.374       .  A
C625        N626   1.343       .  A
C625        N630   1.387       .  A
C625       C1043   1.477       .  S
N626        C627   1.346       .  A
C627        N628   1.354       .  A
N628        C629   1.362       .  A
C629        N630   1.385       .  A
C629        C635   1.506       .  S
C631        N632   1.351       .  A
C631        N636   1.388       .  A
C631        C716   1.474       .  S
N632        C633   1.346       .  A
C633        N634   1.344       .  A
N634        C635   1.350       .  A
C635        N636   1.377       .  A
C637        N638   1.396       .  A
C637        N642   1.350       .  A
C637        C895   1.499       .  S
N638        C639   1.390       .  A
C639        N640   1.353       .  A
C639        C645   1.525       .  S
N640        C641   1.349       .  A
C641        N642   1.349       .  A
C643        N644   1.394       .  A
C643        N648   1.355       .  A
C643        C761   1.506       .  S
N644        C645   1.380       .  A
C645        N646   1.361       .  A
N646        C647   1.356       .  A
C647        N648   1.359       .  A
C649        N650   1.349       .  A
C649        N654   1.389       .  A
C649        C833   1.481       .  S
N650        C651   1.348       .  A
C651        N652   1.349       .  A
N652        C653   1.356       .  A
C653        N654   1.382       .  A
C653        C657   1.511       .  S
C655        N656   1.389       .  A
C655        N660   1.351       .  A
C655        C767   1.485       .  S
N656        C657   1.384       .  A
C657        N658   1.360       .  A
N658        C659   1.354       .  A
C659        N660   1.354       .  A
C661        N662   1.406       .  A
C661        N666   1.353       .  A
C661        C701   1.510       .  S
N662        C663   1.395       .  A
C663        N664   1.355       .  A
C663        C671   1.543       .  S
N664        C665   1.346       .  A
C665        N666   1.345       .  A
C667        N668   1.356       .  A
C667        N672   1.401       .  A
C667        C782   1.507       .  S
N668        C669   1.353       .  A
C669        N670   1.353       .  A
N670        C671   1.363       .  A
C671        N672   1.386       .  A
Zr673       O674   2.433       .  S
Zr673       O675   2.311       .  S
Zr673       O676   2.558       .  S
Zr673       O679   2.594       .  S
Zr673       O681   2.347       .  S
Zr673       O682   2.369       .  S
Zr673       O683   2.429       .  S
Zr673       O684   2.413       .  S
O674        H730   0.990       .  S
O674        H738   0.990       .  S
O675        C695   1.264       .  A
O676        C697   1.314       .  A
O677       Zr687   2.430       .  S
O677        C696   1.282       .  A
O678       Zr686   2.415       .  S
O678        C697   1.278       .  A
O679        C696   1.319       .  A
O680       Zr688   2.575       .  S
O680        C695   1.316       .  A
O681       Zr686   2.369       .  S
O681       Zr688   2.318       .  S
O682       Zr687   2.360       .  S
O682       Zr688   2.307       .  S
O682        H717   0.957       .  S
O683       Zr686   2.412       .  S
O683       Zr703   2.426       .  S
O683        H720   0.967       .  S
O684       Zr687   2.403       .  S
O684       Zr703   2.450       .  S
Zr685       O710   2.432       .  S
Zr685       O704   2.323       .  S
Zr685       O712   2.548       .  S
Zr685       O700   2.577       .  S
Zr685       O691   2.415       .  S
Zr685       O692   2.423       .  S
Zr685       O693   2.346       .  S
Zr685       O694   2.375       .  S
Zr686       O705   2.442       .  S
Zr686       O698   2.435       .  S
Zr686       O699   2.442       .  S
Zr686       O692   2.415       .  S
Zr686       O693   2.354       .  S
Zr687       O689   2.435       .  S
Zr687       O711   2.437       .  S
Zr687       O713   2.379       .  S
Zr687       O691   2.410       .  S
Zr687       O694   2.396       .  S
Zr688       O714   2.436       .  S
Zr688       O715   2.434       .  S
Zr688       O690   2.435       .  S
Zr688       O691   2.437       .  S
Zr688       O692   2.441       .  S
O689        H726   0.990       .  S
O690        H721   0.990       .  S
O690        H735   0.990       .  S
O692        H718   0.966       .  S
O693       Zr703   2.316       .  S
O694       Zr703   2.322       .  S
O694        H719   0.962       .  S
C695        C943   1.475       .  S
O698        H734   0.990       .  S
O699        C701   1.283       .  A
O700        C701   1.316       .  A
O702       Zr703   2.439       .  S
O702        H731   0.990       .  S
Zr703       O706   2.437       .  S
Zr703       O707   2.440       .  S
Zr703       O708   2.568       .  S
O704        C709   1.264       .  A
O705        H722   0.990       .  S
O705        H737   0.990       .  S
O706        H723   0.990       .  S
O707        H727   0.990       .  S
O707        H736   0.990       .  S
O708        C709   1.315       .  A
O710        H729   0.990       .  S
O710        H733   0.990       .  S
O711        H725   0.990       .  S
O711        H732   0.990       .  S
O712        C716   1.310       .  A
O713        C716   1.273       .  A
O714        H724   0.990       .  S
O715        H728   0.990       .  S
Zr739       O740   2.432       .  S
Zr739       O741   2.321       .  S
Zr739       O742   2.607       .  S
Zr739       O745   2.609       .  S
Zr739       O747   2.344       .  S
Zr739       O748   2.372       .  S
Zr739       O749   2.427       .  S
Zr739       O750   2.425       .  S
O740        H796   0.990       .  S
O740        H804   0.990       .  S
O741        C761   1.265       .  A
O742        C763   1.325       .  A
O743       Zr753   2.359       .  S
O743        C762   1.269       .  A
O744       Zr752   2.397       .  S
O744        C763   1.271       .  A
O745        C762   1.322       .  A
O746       Zr754   2.621       .  S
O746        C761   1.326       .  A
O747       Zr752   2.359       .  S
O747       Zr754   2.310       .  S
O748       Zr753   2.387       .  S
O748       Zr754   2.298       .  S
O748        H783   0.961       .  S
O749       Zr752   2.412       .  S
O749       Zr769   2.451       .  S
O749        H786   0.966       .  S
O750       Zr753   2.398       .  S
O750       Zr769   2.441       .  S
Zr751       O776   2.434       .  S
Zr751       O770   2.363       .  S
Zr751       O778   2.609       .  S
Zr751       O766   2.607       .  S
Zr751       O757   2.433       .  S
Zr751       O758   2.454       .  S
Zr751       O759   2.324       .  S
Zr751       O760   2.364       .  S
Zr752       O771   2.442       .  S
Zr752       O764   2.438       .  S
Zr752       O765   2.371       .  S
Zr752       O758   2.402       .  S
Zr752       O759   2.354       .  S
Zr753       O755   2.435       .  S
Zr753       O777   2.439       .  S
Zr753       O779   2.377       .  S
Zr753       O757   2.398       .  S
Zr753       O760   2.382       .  S
Zr754       O780   2.438       .  S
Zr754       O781   2.436       .  S
Zr754       O756   2.438       .  S
Zr754       O757   2.470       .  S
Zr754       O758   2.448       .  S
O755        H792   0.990       .  S
O756        H787   0.990       .  S
O756        H801   0.990       .  S
O758        H784   0.965       .  S
O759       Zr769   2.303       .  S
O760       Zr769   2.326       .  S
O760        H785   0.963       .  S
O764        H800   0.990       .  S
O765        C767   1.271       .  A
O766        C767   1.321       .  A
O768       Zr769   2.437       .  S
O768        H797   0.991       .  S
Zr769       O772   2.435       .  S
Zr769       O773   2.439       .  S
Zr769       O774   2.579       .  S
O770        C775   1.273       .  A
O771        H788   0.990       .  S
O771        H803   0.990       .  S
O772        H789   0.990       .  S
O773        H793   0.990       .  S
O773        H802   0.990       .  S
O774        C775   1.317       .  A
O776        H795   0.990       .  S
O776        H799   0.990       .  S
O777        H791   0.991       .  S
O777        H798   0.990       .  S
O778        C782   1.324       .  A
O779        C782   1.271       .  A
O780        H790   0.990       .  S
O781        H794   0.990       .  S
Zr805       O806   2.432       .  S
Zr805       O807   2.327       .  S
Zr805       O808   2.561       .  S
Zr805       O811   2.563       .  S
Zr805       O813   2.350       .  S
Zr805       O814   2.375       .  S
Zr805       O815   2.418       .  S
Zr805       O816   2.420       .  S
O806        H862   0.990       .  S
O806        H870   0.990       .  S
O807        C827   1.266       .  A
O808        C829   1.314       .  A
O809       Zr819   2.403       .  S
O809        C828   1.278       .  A
O810       Zr818   2.386       .  S
O810        C829   1.272       .  A
O811        C828   1.311       .  A
O812       Zr820   2.590       .  S
O812        C827   1.320       .  A
O813       Zr818   2.364       .  S
O813       Zr820   2.317       .  S
O814       Zr819   2.372       .  S
O814       Zr820   2.296       .  S
O814        H849   0.959       .  S
O815       Zr818   2.407       .  S
O815       Zr835   2.429       .  S
O815        H852   0.966       .  S
O816       Zr819   2.399       .  S
O816       Zr835   2.440       .  S
Zr817       O842   2.435       .  S
Zr817       O836   2.351       .  S
Zr817       O844   2.553       .  S
Zr817       O832   2.570       .  S
Zr817       O823   2.424       .  S
Zr817       O824   2.435       .  S
Zr817       O825   2.333       .  S
Zr817       O826   2.376       .  S
Zr818       O837   2.438       .  S
Zr818       O830   2.437       .  S
Zr818       O831   2.397       .  S
Zr818       O824   2.401       .  S
Zr818       O825   2.344       .  S
Zr819       O821   2.434       .  S
Zr819       O843   2.438       .  S
Zr819       O845   2.387       .  S
Zr819       O823   2.406       .  S
Zr819       O826   2.384       .  S
Zr820       O846   2.435       .  S
Zr820       O847   2.434       .  S
Zr820       O822   2.437       .  S
Zr820       O823   2.453       .  S
Zr820       O824   2.440       .  S
O821        H858   0.990       .  S
O822        H853   0.990       .  S
O822        H867   0.990       .  S
O824        H850   0.966       .  S
O825       Zr835   2.304       .  S
O826       Zr835   2.328       .  S
O826        H851   0.962       .  S
O830        H866   0.990       .  S
O831        C833   1.275       .  A
O832        C833   1.313       .  A
O834       Zr835   2.435       .  S
O834        H863   0.991       .  S
Zr835       O838   2.435       .  S
Zr835       O839   2.439       .  S
Zr835       O840   2.564       .  S
O836        C841   1.270       .  A
O837        H854   0.990       .  S
O837        H869   0.990       .  S
O838        H855   0.990       .  S
O839        H859   0.990       .  S
O839        H868   0.990       .  S
O840        C841   1.315       .  A
O842        H861   0.990       .  S
O842        H865   0.990       .  S
O843        H857   0.990       .  S
O843        H864   0.990       .  S
O844        C848   1.311       .  A
O845        C848   1.274       .  A
O846        H856   0.990       .  S
O847        H860   0.990       .  S
Zr871       O872   2.432       .  S
Zr871       O873   2.295       .  S
Zr871       O874   2.570       .  S
Zr871       O877   2.567       .  S
Zr871       O879   2.351       .  S
Zr871       O880   2.370       .  S
Zr871       O881   2.423       .  S
Zr871       O882   2.405       .  S
O872        H928   0.990       .  S
O872        H936   0.990       .  S
O873        C893   1.261       .  A
O874        C895   1.313       .  A
O875       Zr885   2.397       .  S
O875        C894   1.276       .  A
O876       Zr884   2.430       .  S
O876        C895   1.282       .  A
O877        C894   1.314       .  A
O878       Zr886   2.568       .  S
O878        C893   1.317       .  A
O879       Zr884   2.357       .  S
O879       Zr886   2.311       .  S
O880       Zr885   2.382       .  S
O880       Zr886   2.306       .  S
O880        H915   0.960       .  S
O881       Zr884   2.412       .  S
O881       Zr901   2.424       .  S
O881        H918   0.965       .  S
O882       Zr885   2.410       .  S
O882       Zr901   2.443       .  S
Zr883       O908   2.433       .  S
Zr883       O902   2.302       .  S
Zr883       O910   2.588       .  S
Zr883       O898   2.548       .  S
Zr883       O889   2.409       .  S
Zr883       O890   2.429       .  S
Zr883       O891   2.349       .  S
Zr883       O892   2.373       .  S
Zr884       O903   2.436       .  S
Zr884       O896   2.433       .  S
Zr884       O897   2.432       .  S
Zr884       O890   2.412       .  S
Zr884       O891   2.352       .  S
Zr885       O887   2.436       .  S
Zr885       O909   2.437       .  S
Zr885       O911   2.392       .  S
Zr885       O889   2.400       .  S
Zr885       O892   2.381       .  S
Zr886       O912   2.438       .  S
Zr886       O913   2.434       .  S
Zr886       O888   2.436       .  S
Zr886       O889   2.442       .  S
Zr886       O890   2.430       .  S
O887        H924   0.991       .  S
O888        H919   0.990       .  S
O888        H933   0.990       .  S
O890        H916   0.965       .  S
O891       Zr901   2.306       .  S
O892       Zr901   2.307       .  S
O892        H917   0.960       .  S
O896        H932   0.990       .  S
O897        C899   1.280       .  A
O898        C899   1.310       .  A
O900       Zr901   2.436       .  S
O900        H929   0.990       .  S
Zr901       O904   2.436       .  S
Zr901       O905   2.437       .  S
Zr901       O906   2.570       .  S
O902        C907   1.261       .  A
O903        H920   0.990       .  S
O903        H935   0.990       .  S
O904        H921   0.990       .  S
O905        H925   0.990       .  S
O905        H934   0.990       .  S
O906        C907   1.317       .  A
O908        H927   0.990       .  S
O908        H931   0.990       .  S
O909        H923   0.990       .  S
O909        H930   0.990       .  S
O910        C914   1.317       .  A
O911        C914   1.276       .  A
O912        H922   0.990       .  S
O913        H926   0.990       .  S
C937        N938   1.388       .  A
C937        N942   1.352       .  A
C937        C992   1.478       .  S
N938        C939   1.375       .  A
C939        N940   1.348       .  A
C939        C945   1.500       .  S
N940        C941   1.344       .  A
C941        N942   1.348       .  A
C943        N944   1.384       .  A
C943        N948   1.347       .  A
N944        C945   1.373       .  A
C945        N946   1.359       .  A
N946        C947   1.355       .  A
C947        N948   1.350       .  A
Zr949       O950   2.433       .  S
Zr949       O951   2.317       .  S
Zr949       O952   2.573       .  S
Zr949       O955   2.562       .  S
Zr949       O957   2.344       .  S
Zr949       O958   2.380       .  S
Zr949       O959   2.410       .  S
Zr949       O960   2.419       .  S
O950       H1006   0.990       .  S
O950       H1014   0.990       .  S
O951        C971   1.265       .  A
O952        C973   1.318       .  A
O953       Zr963   2.379       .  S
O953        C972   1.274       .  A
O954       Zr962   2.393       .  S
O954        C973   1.272       .  A
O955        C972   1.312       .  A
O956       Zr964   2.582       .  S
O956        C971   1.317       .  A
O957       Zr962   2.367       .  S
O957       Zr964   2.326       .  S
O958       Zr963   2.373       .  S
O958       Zr964   2.307       .  S
O958        H993   0.960       .  S
O959       Zr962   2.410       .  S
O959       Zr979   2.434       .  S
O959        H996   0.966       .  S
O960       Zr963   2.396       .  S
O960       Zr979   2.424       .  S
Zr961       O986   2.434       .  S
Zr961       O980   2.339       .  S
Zr961       O988   2.543       .  S
Zr961       O976   2.575       .  S
Zr961       O967   2.412       .  S
Zr961       O968   2.431       .  S
Zr961       O969   2.329       .  S
Zr961       O970   2.377       .  S
Zr962       O981   2.442       .  S
Zr962       O974   2.436       .  S
Zr962       O975   2.408       .  S
Zr962       O968   2.412       .  S
Zr962       O969   2.338       .  S
Zr963       O965   2.436       .  S
Zr963       O987   2.438       .  S
Zr963       O989   2.376       .  S
Zr963       O967   2.406       .  S
Zr963       O970   2.377       .  S
Zr964       O990   2.435       .  S
Zr964       O991   2.435       .  S
Zr964       O966   2.437       .  S
Zr964       O967   2.441       .  S
Zr964       O968   2.443       .  S
O965       H1002   0.990       .  S
O966        H997   0.990       .  S
O966       H1011   0.990       .  S
O968        H994   0.966       .  S
O969       Zr979   2.304       .  S
O970       Zr979   2.340       .  S
O970        H995   0.963       .  S
C971       C1153   1.480       .  S
O974       H1010   0.990       .  S
O975        C977   1.275       .  A
O976        C977   1.314       .  A
O978       Zr979   2.438       .  S
O978       H1007   0.990       .  S
Zr979       O982   2.436       .  S
Zr979       O983   2.442       .  S
Zr979       O984   2.525       .  S
O980        C985   1.267       .  A
O981        H998   0.990       .  S
O981       H1013   0.990       .  S
O982        H999   0.990       .  S
O983       H1003   0.990       .  S
O983       H1012   0.990       .  S
O984        C985   1.308       .  A
O986       H1005   0.990       .  S
O986       H1009   0.990       .  S
O987       H1001   0.991       .  S
O987       H1008   0.990       .  S
O988        C992   1.309       .  A
O989        C992   1.271       .  A
O990       H1000   0.990       .  S
O991       H1004   0.990       .  S
Zr1015     O1016   2.433       .  S
Zr1015     O1017   2.348       .  S
Zr1015     O1018   2.526       .  S
Zr1015     O1021   2.554       .  S
Zr1015     O1023   2.396       .  S
Zr1015     O1024   2.366       .  S
Zr1015     O1025   2.434       .  S
Zr1015     O1026   2.440       .  S
O1016      H1072   0.990       .  S
O1016      H1080   0.990       .  S
O1017      C1037   1.269       .  A
O1018      C1039   1.304       .  A
O1019     Zr1029   2.395       .  S
O1019      C1038   1.279       .  A
O1020     Zr1028   2.407       .  S
O1020      C1039   1.269       .  A
O1021      C1038   1.310       .  A
O1022     Zr1030   2.538       .  S
O1022      C1037   1.306       .  A
O1023     Zr1028   2.351       .  S
O1023     Zr1030   2.376       .  S
O1024     Zr1029   2.359       .  S
O1024     Zr1030   2.293       .  S
O1024      H1059   0.952       .  S
O1025     Zr1028   2.391       .  S
O1025     Zr1045   2.449       .  S
O1025      H1062   0.965       .  S
O1026     Zr1029   2.406       .  S
O1026     Zr1045   2.413       .  S
Zr1027     O1052   2.434       .  S
Zr1027     O1046   2.360       .  S
Zr1027     O1054   2.556       .  S
Zr1027     O1042   2.539       .  S
Zr1027     O1033   2.383       .  S
Zr1027     O1034   2.437       .  S
Zr1027     O1035   2.339       .  S
Zr1027     O1036   2.358       .  S
Zr1028     O1047   2.437       .  S
Zr1028     O1040   2.438       .  S
Zr1028     O1041   2.357       .  S
Zr1028     O1034   2.406       .  S
Zr1028     O1035   2.359       .  S
Zr1029     O1031   2.434       .  S
Zr1029     O1053   2.440       .  S
Zr1029     O1055   2.377       .  S
Zr1029     O1033   2.428       .  S
Zr1029     O1036   2.412       .  S
Zr1030     O1056   2.436       .  S
Zr1030     O1057   2.435       .  S
Zr1030     O1032   2.435       .  S
Zr1030     O1033   2.464       .  S
Zr1030     O1034   2.430       .  S
O1031      H1068   0.990       .  S
O1032      H1063   0.990       .  S
O1032      H1077   0.990       .  S
O1034      H1060   0.964       .  S
O1035     Zr1045   2.362       .  S
O1036     Zr1045   2.348       .  S
O1036      H1061   0.964       .  S
O1040      H1076   0.990       .  S
O1041      C1043   1.248       .  A
O1042      C1043   1.298       .  A
O1044     Zr1045   2.434       .  S
O1044      H1073   0.990       .  S
Zr1045     O1048   2.448       .  S
Zr1045     O1049   2.438       .  S
Zr1045     O1050   2.546       .  S
O1046      C1051   1.269       .  A
O1047      H1064   0.990       .  S
O1047      H1079   0.990       .  S
O1048      H1065   0.990       .  S
O1049      H1069   0.990       .  S
O1049      H1078   0.990       .  S
O1050      C1051   1.309       .  A
O1052      H1071   0.990       .  S
O1052      H1075   0.990       .  S
O1053      H1067   0.990       .  S
O1053      H1074   0.990       .  S
O1054      C1058   1.313       .  A
O1055      C1058   1.269       .  A
O1056      H1066   0.990       .  S
O1057      H1070   0.990       .  S
Zr1081     O1082   2.435       .  S
Zr1081     O1083   2.332       .  S
Zr1081     O1084   2.519       .  S
Zr1081     O1087   2.552       .  S
Zr1081     O1089   2.387       .  S
Zr1081     O1090   2.370       .  S
Zr1081     O1091   2.433       .  S
Zr1081     O1092   2.435       .  S
O1082      H1138   0.990       .  S
O1082      H1146   0.990       .  S
O1083      C1103   1.267       .  A
O1084      C1105   1.303       .  A
O1085     Zr1095   2.398       .  S
O1085      C1104   1.279       .  A
O1086     Zr1094   2.402       .  S
O1086      C1105   1.272       .  A
O1087      C1104   1.308       .  A
O1088     Zr1096   2.588       .  S
O1088      C1103   1.319       .  A
O1089     Zr1094   2.351       .  S
O1089     Zr1096   2.347       .  S
O1090     Zr1095   2.364       .  S
O1090     Zr1096   2.285       .  S
O1090      H1125   0.954       .  S
O1091     Zr1094   2.390       .  S
O1091     Zr1111   2.436       .  S
O1091      H1128   0.966       .  S
O1092     Zr1095   2.404       .  S
O1092     Zr1111   2.408       .  S
Zr1093     O1118   2.436       .  S
Zr1093     O1112   2.406       .  S
Zr1093     O1120   2.545       .  S
Zr1093     O1108   2.534       .  S
Zr1093     O1099   2.403       .  S
Zr1093     O1100   2.446       .  S
Zr1093     O1101   2.338       .  S
Zr1093     O1102   2.369       .  S
Zr1094     O1113   2.438       .  S
Zr1094     O1106   2.438       .  S
Zr1094     O1107   2.366       .  S
Zr1094     O1100   2.403       .  S
Zr1094     O1101   2.352       .  S
Zr1095     O1097   2.434       .  S
Zr1095     O1119   2.442       .  S
Zr1095     O1121   2.379       .  S
Zr1095     O1099   2.425       .  S
Zr1095     O1102   2.410       .  S
Zr1096     O1122   2.435       .  S
Zr1096     O1123   2.434       .  S
Zr1096     O1098   2.437       .  S
Zr1096     O1099   2.472       .  S
Zr1096     O1100   2.449       .  S
O1097      H1134   0.990       .  S
O1098      H1129   0.990       .  S
O1098      H1143   0.990       .  S
O1100      H1126   0.964       .  S
O1101     Zr1111   2.357       .  S
O1102     Zr1111   2.364       .  S
O1102      H1127   0.965       .  S
O1106      H1142   0.990       .  S
O1107      C1109   1.253       .  A
O1108      C1109   1.299       .  A
O1110     Zr1111   2.434       .  S
O1110      H1139   0.990       .  S
Zr1111     O1114   2.446       .  S
Zr1111     O1115   2.436       .  S
Zr1111     O1116   2.515       .  S
O1112      C1117   1.276       .  A
O1113      H1130   0.990       .  S
O1113      H1145   0.990       .  S
O1114      H1131   0.990       .  S
O1115      H1135   0.990       .  S
O1115      H1144   0.990       .  S
O1116      C1117   1.304       .  A
O1118      H1137   0.990       .  S
O1118      H1141   0.990       .  S
O1119      H1133   0.991       .  S
O1119      H1140   0.990       .  S
O1120      C1124   1.308       .  A
O1121      C1124   1.271       .  A
O1122      H1132   0.990       .  S
O1123      H1136   0.990       .  S
C1147      N1148   1.386       .  A
C1147      N1152   1.342       .  A
C1147      C1202   1.465       .  S
N1148      C1149   1.376       .  A
C1149      N1150   1.352       .  A
C1149      C1157   1.501       .  S
N1150      C1151   1.349       .  A
C1151      N1152   1.338       .  A
C1153      N1154   1.345       .  A
C1153      N1158   1.386       .  A
N1154      C1155   1.348       .  A
C1155      N1156   1.355       .  A
N1156      C1157   1.356       .  A
C1157      N1158   1.374       .  A
Zr1159     O1160   2.434       .  S
Zr1159     O1161   2.315       .  S
Zr1159     O1162   2.554       .  S
Zr1159     O1165   2.544       .  S
Zr1159     O1167   2.312       .  S
Zr1159     O1168   2.376       .  S
Zr1159     O1169   2.421       .  S
Zr1159     O1170   2.406       .  S
O1160      H1216   0.990       .  S
O1160      H1224   0.990       .  S
O1161      C1181   1.264       .  A
O1162      C1183   1.312       .  A
O1163     Zr1173   2.387       .  S
O1163      C1182   1.274       .  A
O1164     Zr1172   2.390       .  S
O1164      C1183   1.274       .  A
O1165      C1182   1.311       .  A
O1166     Zr1174   2.584       .  S
O1166      C1181   1.317       .  A
O1167     Zr1172   2.338       .  S
O1167     Zr1174   2.296       .  S
O1168     Zr1173   2.374       .  S
O1168     Zr1174   2.312       .  S
O1168      H1203   0.959       .  S
O1169     Zr1172   2.408       .  S
O1169     Zr1189   2.425       .  S
O1169      H1206   0.965       .  S
O1170     Zr1173   2.408       .  S
O1170     Zr1189   2.436       .  S
Zr1171     O1196   2.434       .  S
Zr1171     O1190   2.328       .  S
Zr1171     O1198   2.530       .  S
Zr1171     O1186   2.567       .  S
Zr1171     O1177   2.417       .  S
Zr1171     O1178   2.416       .  S
Zr1171     O1179   2.351       .  S
Zr1171     O1180   2.378       .  S
Zr1172     O1191   2.440       .  S
Zr1172     O1184   2.435       .  S
Zr1172     O1185   2.400       .  S
Zr1172     O1178   2.415       .  S
Zr1172     O1179   2.351       .  S
Zr1173     O1175   2.439       .  S
Zr1173     O1197   2.434       .  S
Zr1173     O1199   2.380       .  S
Zr1173     O1177   2.409       .  S
Zr1173     O1180   2.377       .  S
Zr1174     O1200   2.435       .  S
Zr1174     O1201   2.434       .  S
Zr1174     O1176   2.437       .  S
Zr1174     O1177   2.437       .  S
Zr1174     O1178   2.450       .  S
O1175      H1212   0.990       .  S
O1176      H1207   0.990       .  S
O1176      H1221   0.990       .  S
O1178      H1204   0.966       .  S
O1179     Zr1189   2.320       .  S
O1180     Zr1189   2.302       .  S
O1180      H1205   0.960       .  S
O1184      H1220   0.990       .  S
O1185      C1187   1.273       .  A
O1186      C1187   1.313       .  A
O1188     Zr1189   2.434       .  S
O1188      H1217   0.990       .  S
Zr1189     O1192   2.436       .  S
Zr1189     O1193   2.438       .  S
Zr1189     O1194   2.554       .  S
O1190      C1195   1.265       .  A
O1191      H1208   0.990       .  S
O1191      H1223   0.990       .  S
O1192      H1209   0.990       .  S
O1193      H1213   0.990       .  S
O1193      H1222   0.990       .  S
O1194      C1195   1.315       .  A
O1196      H1215   0.990       .  S
O1196      H1219   0.990       .  S
O1197      H1211   0.990       .  S
O1197      H1218   0.990       .  S
O1198      C1202   1.308       .  A
O1199      C1202   1.273       .  A
O1200      H1210   0.990       .  S
O1201      H1214   0.990       .  S
