geometry optimzed in LAMMPS
_audit_creation_date              2020-11-30 
_audit_creation_method            'lammps2cif' 
_symmetry_space_group_name_H-M    'P1' 
_symmetry_Int_Tables_number       1 
_symmetry_cell_setting            triclinic 
loop_ 
_symmetry_equiv_pos_as_xyz 
  x,y,z 
_cell_length_a                    54.42513386 
_cell_length_b                    54.48003054908273 
_cell_length_c                    35.902642766018126 
_cell_angle_alpha                 90.04196474407475 
_cell_angle_beta                  89.89494170685141 
_cell_angle_gamma                 119.99043507442794 
loop_ 
_atom_site_label 
_atom_site_type_symbol 
_atom_site_fract_x 
_atom_site_fract_y 
_atom_site_fract_z 
_atom_site_charge 
C1          C  0.20629781  0.10420023  0.43357737     0.79800
N2          N  0.19294038  0.11928499  0.44038407    -0.78500
C3          C  0.16587152  0.10612511  0.45346956     0.82200
N4          N  0.15203543  0.07771743  0.45947269    -0.78500
C5          C  0.16536987  0.06258458  0.45405954     0.82300
N6          N  0.19242527  0.07585793  0.44096390    -0.80200
C7          C  0.14991720  0.16347243  0.47551073     0.79800
N8          N  0.16447334  0.14944423  0.46957163    -0.78500
C9          C  0.15064088  0.12184005  0.45877119     0.82200
N10         N  0.12212644  0.10816827  0.45406221    -0.78500
C11         C  0.10741340  0.12199159  0.45862381     0.82300
N12         N  0.12132787  0.14964464  0.46944070    -0.80200
C13         C  0.03457902  0.10495757  0.43201849     0.79800
N14         N  0.06291420  0.11982994  0.43951949    -0.78500
C15         C  0.07648234  0.10641421  0.45273100     0.82200
N16         N  0.06165673  0.07789711  0.45801485    -0.78500
C17         C  0.03324982  0.06293762  0.45183966     0.82300
N18         N  0.01982693  0.07652693  0.43875581    -0.80200
C19         C  0.03393030  0.43200896  0.42988152     0.79800
N20         N  0.01915790  0.44579446  0.43624111    -0.78500
C21         C  0.03261568  0.47296030  0.44887943     0.82200
N22         N  0.06096352  0.48643104  0.45500741    -0.78500
C23         C  0.07584049  0.47280378  0.45009895     0.82300
N24         N  0.06231389  0.44559636  0.43743984    -0.80200
C25         C  0.47648719  0.48964625  0.47555452     0.79800
N26         N  0.49042406  0.01822857  0.46963666    -0.78500
C27         C  0.01767050  0.03193865  0.45708398     0.82200
N28         N  0.03105866  0.01699084  0.45061858    -0.78500
C29         C  0.01719263  0.48841938  0.45508027     0.82300
N30         N  0.48997504  0.47483332  0.46769137    -0.80200
C31         C  0.14816571  0.48943233  0.47922113     0.79800
N32         N  0.16299995  0.01796876  0.47311762    -0.78500
C33         C  0.14971175  0.03168921  0.45989881     0.82200
N34         N  0.12145816  0.01680034  0.45283501    -0.78500
C35         C  0.10658669  0.48824563  0.45744846     0.82300
N36         N  0.11995055  0.47465462  0.47083531    -0.80200
O37         O  0.30967160  0.38873981  0.73410557    -0.85800
O38         O  0.25939797  0.34089785  0.75218862    -0.82800
C39         C  0.23300874  0.32517371  0.75680310     0.97700
O40         O  0.21586649  0.32733980  0.73505970    -0.82900
O41         O  0.21914591  0.37798556  0.75257309    -0.85500
C42         C  0.22973024  0.40435960  0.75658776     1.02200
O43         O  0.24846930  0.42139397  0.73410180    -0.78300
O44         O  0.29657649  0.41926597  0.75078174    -0.78400
C45         C  0.31205882  0.40836407  0.75536139     1.02200
O46         O  0.29609935  0.37727619  0.65623015    -0.85800
O47         O  0.24790947  0.32742188  0.67405516    -0.82800
C48         C  0.22907905  0.32597006  0.65203653     0.97700
O49         O  0.21823267  0.34144862  0.65699901    -0.82900
O50         O  0.21568359  0.38903231  0.67467892    -0.85500
C51         C  0.23259632  0.40767296  0.65200433     1.02200
O52         O  0.25900903  0.41812701  0.65579658    -0.78300
O53         O  0.30954270  0.42087331  0.67294159    -0.78400
C54         C  0.31171074  0.40362415  0.65144270     1.02100
Cr55       Cr  0.27671435  0.36014294  0.70417646     1.93700
Cr56       Cr  0.22031135  0.36045854  0.70480903     1.93200
Cr57       Cr  0.27683231  0.41681831  0.70343902     1.39100
O58         O  0.25800382  0.37915041  0.70419829    -1.23500
C59         C  0.03264566  0.10134444  0.97733606     0.79800
N60         N  0.06105133  0.11634000  0.96993419    -0.78500
C61         C  0.07486156  0.10295254  0.95722773     0.82200
N62         N  0.06023505  0.07445202  0.95215239    -0.78500
C63         C  0.03184620  0.05937217  0.95813044     0.82300
N64         N  0.01812243  0.07284802  0.97080949    -0.80200
C65         C  0.47581855  0.48683656  0.93123475     0.79800
N66         N  0.48924194  0.47182056  0.93805680    -0.78500
C67         C  0.01624584  0.48503508  0.95127374     0.82200
N68         N  0.02995201  0.01346202  0.95731110    -0.78500
C69         C  0.01650919  0.02850406  0.95188891     0.82300
N70         N  0.48951812  0.01513837  0.93875700    -0.80200
C71         C  0.03247077  0.42822938  0.97612930     0.79800
N72         N  0.01773620  0.44196726  0.96924887    -0.78500
C73         C  0.03146793  0.46931425  0.95710877     0.82200
N74         N  0.05997908  0.48292641  0.95204587    -0.78500
C75         C  0.07480342  0.46931762  0.95753786     0.82300
N76         N  0.06102625  0.44202882  0.96970623    -0.80200
C77         C  0.14825178  0.48663563  0.93307003     0.79800
N78         N  0.16276934  0.01504452  0.94017689    -0.78500
C79         C  0.14898586  0.02847291  0.95270365     0.82200
N80         N  0.12046060  0.01340089  0.95781860    -0.78500
C81         C  0.10581559  0.48494678  0.95214354     0.82300
N82         N  0.11974541  0.47163206  0.93966187    -0.80200
C83         C  0.20459826  0.10150506  0.97965707     0.79800
N84         N  0.19102934  0.11618477  0.97170671    -0.78500
C85         C  0.16424852  0.10270985  0.95787519     0.82200
N86         N  0.15079069  0.07425743  0.95231519    -0.78500
C87         C  0.16429121  0.05940736  0.95885006     0.82300
N88         N  0.19120166  0.07307802  0.97260302    -0.80200
C89         C  0.14800781  0.15916784  0.93121534     0.79800
N90         N  0.11951204  0.14558133  0.93819422    -0.78500
C91         C  0.10577986  0.11846479  0.95109390     0.82200
N92         N  0.12055084  0.10482361  0.95674755    -0.78500
C93         C  0.14898076  0.11825022  0.95118455     0.82300
N94         N  0.16268551  0.14541361  0.93836901    -0.80200
O95         O  0.42176559  0.24979463  0.15816998    -0.85800
O96         O  0.37186180  0.20205996  0.17646837    -0.82800
C97         C  0.37013449  0.18358053  0.15356222     0.97700
O98         O  0.38626250  0.17328181  0.15678459    -0.82900
O99         O  0.43391701  0.17023538  0.17361476    -0.85500
C100        C  0.45279531  0.18735628  0.15141277     1.02200
O101        O  0.46331211  0.21373289  0.15576702    -0.78300
O102        O  0.46551582  0.26375378  0.17482675    -0.78400
C103        C  0.44807857  0.26530241  0.15302664     1.02200
O104        O  0.43416994  0.26346515  0.23612864    -0.85800
O105        O  0.38670021  0.21293300  0.25398007    -0.82800
C106        C  0.37050631  0.18655344  0.25731800     0.97700
O107        O  0.37237101  0.16966593  0.23479121    -0.82900
O108        O  0.42291367  0.17217150  0.25148101    -0.85500
C109        C  0.44935976  0.18284679  0.25528106     1.02200
O110        O  0.46634843  0.20202351  0.23329459    -0.78300
O111        O  0.46419617  0.24979257  0.25260057    -0.78400
C112        C  0.45340010  0.26534043  0.25776171     1.02100
Cr113      Cr  0.40519712  0.23061213  0.20612893     1.93700
Cr114      Cr  0.40536345  0.17435317  0.20422774     1.93200
Cr115      Cr  0.46181962  0.23083193  0.20418226     1.39100
O116        O  0.42415717  0.21194212  0.20492645    -1.23500
C117        C  0.27468956  0.18116646  0.05656800    -0.18300
C118        C  0.29744473  0.19239396  0.08155924    -0.20400
C119        C  0.31197664  0.17776769  0.08934599     0.20200
C120        C  0.30391949  0.15188320  0.07107956    -0.03300
C121        C  0.28074000  0.14039810  0.04610236    -0.06400
C122        C  0.26593258  0.15500460  0.03909869     0.20500
C123        C  0.27191420  0.11394293  0.02898740     0.18700
C124        C  0.28697343  0.09972139  0.03601607    -0.17900
C125        C  0.31012692  0.11124574  0.06041425    -0.20100
C126        C  0.31852763  0.13710968  0.07848062     0.20200
C127        C  0.34077247  0.14805134  0.10450225    -0.33100
C128        C  0.34824449  0.17330482  0.12387725     0.00900
C129        C  0.33396712  0.18822876  0.11567661    -0.24500
C130        C  0.24206287  0.14281417  0.01575040    -0.29000
C131        C  0.23223366  0.11580618  0.99983712     0.06500
C132        C  0.24771437  0.10179557  0.00607717    -0.27700
H133        H  0.26358508  0.19269009  0.05145430     0.11200
H134        H  0.30343473  0.21236788  0.09519122     0.12400
H135        H  0.28059753  0.07945148  0.02302465     0.11400
H136        H  0.32114031  0.09965009  0.06568931     0.10700
H137        H  0.35164367  0.13641457  0.11053182     0.16100
H138        H  0.33973953  0.20786645  0.13012672     0.12000
H139        H  0.23045684  0.15392608  0.01132348     0.14800
H140        H  0.24055358  0.08110370  0.99388335     0.14600
C141        C  0.02811911  0.33331195  0.07549106    -0.18300
C142        C  0.03983418  0.35569694  0.04999173    -0.20400
C143        C  0.02285502  0.36527797  0.03329245     0.20200
C144        C  0.49357420  0.35150971  0.04136720    -0.03300
C145        C  0.48169230  0.32877455  0.06703834    -0.06400
C146        C  0.99921869  0.32006601  0.08465672     0.20500
C147        C  0.45254541  0.31542865  0.07598737     0.18700
C148        C  0.43540817  0.32442607  0.05831783    -0.17900
C149        C  0.44722780  0.34708841  0.03306215    -0.20100
C150        C  0.47638753  0.36111656  0.02488493     0.20200
C151        C  0.48886996  0.38526094  0.00180100    -0.33100
C152        C  0.01838207  0.40002467  0.99506039     0.00900
C153        C  0.03495451  0.38914318  0.00994908    -0.24500
C154        C  0.48778766  0.29886639  0.11194432    -0.29000
C155        C  0.45900736  0.28611180  0.12207257     0.06500
C156        C  0.44130130  0.29397741  0.10323593    -0.27700
H157        H  0.04181612  0.32673658  0.08862652     0.11200
H158        H  0.06233352  0.36596655  0.04400880     0.12400
H159        H  0.41296711  0.31435612  0.06466070     0.11400
H160        H  0.43364327  0.35403568  0.02051885     0.10700
H161        H  0.47574336  0.39315683  0.99029826     0.16100
H162        H  0.05762399  0.40006186  0.00498475     0.12000
H163        H  0.00151379  0.29263655  0.12580775     0.14800
H164        H  0.41904724  0.28413004  0.11064378     0.14600
C165        C  0.44155957  0.10621913  0.07632753    -0.18300
C166        C  0.45238383  0.09425726  0.05130619    -0.20400
C167        C  0.47913948  0.11099338  0.03482920     0.20200
C168        C  0.49476918  0.14024010  0.04289774    -0.03300
C169        C  0.48377270  0.15236473  0.06809288    -0.06400
C170        C  0.45723147  0.13515031  0.08525779     0.20500
C171        C  0.99963946  0.18151750  0.07679582     0.18700
C172        C  0.02611566  0.19834404  0.05967173    -0.17900
C173        C  0.03705850  0.18631444  0.03487496    -0.20100
C174        C  0.02173050  0.15722513  0.02665182     0.20200
C175        C  0.03332907  0.14467908  0.00357139    -0.33100
C176        C  0.01845417  0.11525053  0.99664435     0.00900
C177        C  0.49092725  0.09876667  0.01155611    -0.24500
C178        C  0.44709936  0.14699041  0.11165933    -0.29000
C179        C  0.46302430  0.17590801  0.12124238     0.06500
C180        C  0.48907279  0.19316381  0.10306962    -0.27700
H181        H  0.42106726  0.09271585  0.08913562     0.11200
H182        H  0.44004746  0.07178554  0.04538649     0.12400
H183        H  0.03859218  0.22075914  0.06591093     0.11400
H184        H  0.05776527  0.19971322  0.02258372     0.10700
H185        H  0.05441291  0.15773922  0.99211795     0.16100
H186        H  0.47909811  0.07614012  0.00648613     0.12000
H187        H  0.42687919  0.13351581  0.12516389     0.14800
H188        H  0.00152811  0.21542976  0.11020670     0.14600
C189        C  0.23283633  0.23889703  0.87104789    -0.18300
C190        C  0.24464000  0.26189568  0.84627273    -0.20400
C191        C  0.22777899  0.27195815  0.83036006     0.20200
C192        C  0.19886421  0.25912380  0.84040624    -0.03300
C193        C  0.18697983  0.23599758  0.86562549    -0.06400
C194        C  0.20392008  0.22552033  0.88053241     0.20500
C195        C  0.15794543  0.22286729  0.87502816     0.18700
C196        C  0.14124258  0.23338833  0.85996510    -0.17900
C197        C  0.15294505  0.25614257  0.83493232    -0.20100
C198        C  0.18161864  0.26889256  0.82453571     0.20200
C199        C  0.19310836  0.29077162  0.79792496    -0.33100
C200        C  0.22176249  0.30331462  0.78692776     0.00900
C201        C  0.23910013  0.29412061  0.80397276    -0.24500
C202        C  0.19146289  0.20130294  0.90355825    -0.29000
C203        C  0.16215611  0.18724888  0.91180039     0.06500
C204        C  0.14584010  0.19884880  0.89822001    -0.27700
H205        H  0.24624134  0.23126899  0.88231068     0.11200
H206        H  0.26690862  0.27150990  0.83904868     0.12400
H207        H  0.11892947  0.22364104  0.86697555     0.11400
H208        H  0.13942506  0.26348071  0.82322968     0.10700
H209        H  0.17959499  0.29783328  0.78542650     0.16100
H210        H  0.26119419  0.30359677  0.79586152     0.12000
H211        H  0.20442950  0.19286860  0.91394889     0.14800
H212        H  0.12333624  0.18849341  0.90431886     0.14600
C213        C  0.37819321  0.39542387  0.83574968    -0.18300
C214        C  0.40062655  0.40608959  0.86117543    -0.20400
C215        C  0.41207691  0.43373587  0.87513984     0.20200
C216        C  0.40029353  0.45052326  0.86414229    -0.03300
C217        C  0.37756368  0.43971641  0.83854480    -0.06400
C218        C  0.36677382  0.41217926  0.82392420     0.20500
C219        C  0.36608827  0.45666906  0.82697010     0.18700
C220        C  0.37718254  0.48411426  0.84153120    -0.17900
C221        C  0.39979982  0.49487055  0.86675187    -0.20100
C222        C  0.41169416  0.47836246  0.87792135     0.20200
C223        C  0.43538246  0.48953894  0.90157767    -0.33100
C224        C  0.44811023  0.47338691  0.91139491     0.00900
C225        C  0.43572137  0.44517026  0.89884767    -0.24500
C226        C  0.34512130  0.40205264  0.79723333    -0.29000
C227        C  0.33385021  0.41893921  0.78505170     0.06500
C228        C  0.34412723  0.44608371  0.80053137    -0.27700
H229        H  0.37002306  0.37416696  0.82493154     0.11200
H230        H  0.40935683  0.39288686  0.86940648     0.12400
H231        H  0.36862942  0.49741675  0.83301254     0.11400
H232        H  0.40827147  0.51628850  0.87710642     0.10700
H233        H  0.44452429  0.51123565  0.91114720     0.16100
H234        H  0.44513829  0.43240431  0.90622541     0.12000
H235        H  0.33713651  0.38100282  0.78573283     0.14800
H236        H  0.33560253  0.45925411  0.79124979     0.14600
C237        C  0.24059890  0.48397667  0.83488752    -0.18300
C238        C  0.22950185  0.49525638  0.86053008    -0.20400
C239        C  0.20250184  0.47812189  0.87615036     0.20200
C240        C  0.18692334  0.44912803  0.86676387    -0.03300
C241        C  0.19822733  0.43767875  0.84106941    -0.06400
C242        C  0.22497125  0.45533303  0.82456519     0.20500
C243        C  0.18244721  0.40877912  0.83117135     0.18700
C244        C  0.15577745  0.39148871  0.84754613    -0.17900
C245        C  0.14447116  0.40289133  0.87271990    -0.20100
C246        C  0.15969575  0.43176164  0.88214078     0.20200
C247        C  0.14775595  0.44377381  0.90553120    -0.33100
C248        C  0.16262490  0.47300661  0.91370351     0.00900
C249        C  0.19041933  0.48977014  0.89981460    -0.24500
C250        C  0.23532365  0.44419251  0.79746209    -0.29000
C251        C  0.21944246  0.41553108  0.78683195     0.06500
C252        C  0.19327735  0.39783288  0.80443407    -0.27700
H253        H  0.26125096  0.99778997  0.82268511     0.13600
H254        H  0.24178632  0.01754114  0.86753309     0.12400
H255        H  0.14341440  0.36923635  0.84035136     0.11400
H256        H  0.12358513  0.38920234  0.88435605     0.10700
H257        H  0.12644957  0.43050888  0.91620919     0.16100
H258        H  0.20223398  0.01224548  0.90589357     0.12000
H259        H  0.25565878  0.45792609  0.78437580     0.14800
H260        H  0.18089868  0.37572827  0.79647454     0.14600
C261        C  0.23262859  0.49304745  0.53721148    -0.18300
C262        C  0.24443117  0.48158879  0.56144277    -0.20400
C263        C  0.22738035  0.45486399  0.57775045     0.20200
C264        C  0.19832784  0.43913129  0.56847976    -0.03300
C265        C  0.18647071  0.45057834  0.54365550    -0.06400
C266        C  0.20359407  0.47791313  0.52857082     0.20500
C267        C  0.15732046  0.43506106  0.53494185     0.18700
C268        C  0.14045151  0.40793763  0.55026343    -0.17900
C269        C  0.15212056  0.39672613  0.57508684    -0.20100
C270        C  0.18090978  0.41234226  0.58488955     0.20200
C271        C  0.19238934  0.40199811  0.61153729    -0.33100
C272        C  0.22118192  0.41790002  0.62181631     0.00900
C273        C  0.23868576  0.44401453  0.60398012    -0.24500
C274        C  0.19122785  0.49000554  0.50617270    -0.29000
C275        C  0.16189203  0.47514360  0.49851407     0.06500
C276        C  0.14530286  0.44729100  0.51220198    -0.27700
H277        H  0.24615083  0.51399910  0.52572446     0.11200
H278        H  0.26679856  0.49392512  0.56808298     0.12400
H279        H  0.11806440  0.39565220  0.54372865     0.11400
H280        H  0.13847194  0.37600820  0.58715161     0.10700
H281        H  0.17877682  0.38167935  0.62466227     0.16100
H282        H  0.26088819  0.45640255  0.61151451     0.12000
H283        H  0.20436415  0.51135309  0.49564268     0.14800
H284        H  0.12274105  0.43549617  0.50655611     0.14600
C285        C  0.38053273  0.48413769  0.57476072    -0.18300
C286        C  0.40300881  0.49603420  0.54929334    -0.20400
C287        C  0.41325819  0.47941647  0.53313809     0.20200
C288        C  0.40018629  0.45032104  0.54197328    -0.03300
C289        C  0.37731284  0.43823574  0.56755491    -0.06400
C290        C  0.36777626  0.45537482  0.58438668     0.20500
C291        C  0.36449173  0.40923702  0.57697234     0.18700
C292        C  0.37443501  0.39252722  0.56023472    -0.17900
C293        C  0.39724191  0.40455131  0.53512773    -0.20100
C294        C  0.41048451  0.43349874  0.52612729     0.20200
C295        C  0.43445002  0.44611741  0.50269098    -0.33100
C296        C  0.44845265  0.47544972  0.49500728     0.00900
C297        C  0.43702763  0.49168425  0.50948081    -0.24500
C298        C  0.34605868  0.44365962  0.61111153    -0.29000
C299        C  0.33343245  0.41490847  0.62130797     0.06500
C300        C  0.34244138  0.39767301  0.60353393    -0.27700
H301        H  0.37336994  0.49756371  0.58733299     0.11200
H302        H  0.41275246  0.51838986  0.54279964     0.12400
H303        H  0.36487364  0.37023023  0.56702910     0.11400
H304        H  0.40481207  0.39127393  0.52317974     0.10700
H305        H  0.44279345  0.43323707  0.49161001     0.16100
H306        H  0.44738541  0.51421381  0.50381287     0.12000
H307        H  0.33915143  0.45710360  0.62429061     0.14800
H308        H  0.33290007  0.37551379  0.61113977     0.14600
C309        C  0.44230042  0.33497632  0.33348308    -0.18300
C310        C  0.45334808  0.35803743  0.35795650    -0.20400
C311        C  0.48021160  0.36817771  0.37400901     0.20200
C312        C  0.49570317  0.35433577  0.36625277    -0.03300
C313        C  0.48448938  0.33094232  0.34154098    -0.06400
C314        C  0.45790118  0.32160343  0.32461931     0.20500
C315        C  0.50024786  0.31749601  0.33289936     0.18700
C316        C  0.02671353  0.32709544  0.34997321    -0.17900
C317        C  0.03786969  0.35033788  0.37432855    -0.20100
C318        C  0.02275336  0.36442798  0.38217636     0.20200
C319        C  0.03462344  0.38899120  0.40451407    -0.33100
C320        C  0.01983217  0.40373470  0.41106256     0.00900
C321        C  0.49222243  0.39252680  0.39652932    -0.24500
C322        C  0.44769649  0.29964419  0.29828141    -0.29000
C323        C  0.46365105  0.28673919  0.28831253     0.06500
C324        C  0.48963558  0.29532169  0.30655187    -0.27700
H325        H  0.42176519  0.32795058  0.32090168     0.11200
H326        H  0.44110416  0.36833357  0.36370963     0.12400
H327        H  0.03908930  0.31698419  0.34389835     0.11400
H328        H  0.05859353  0.35764509  0.38645521     0.10700
H329        H  0.05576660  0.39712993  0.41570743     0.16100
H330        H  0.48043082  0.40342808  0.40133342     0.12000
H331        H  0.42747585  0.29297759  0.28493285     0.14800
H332        H  0.50206162  0.28546351  0.29931172     0.14600
C333        C  0.03005401  0.19500635  0.33161604    -0.18300
C334        C  0.04183334  0.18451559  0.35728412    -0.20400
C335        C  0.02509876  0.15769207  0.37345045     0.20200
C336        C  0.49603151  0.14161855  0.36442214    -0.03300
C337        C  0.48410358  0.15226105  0.33860781    -0.06400
C338        C  0.00133068  0.17890360  0.32177049     0.20500
C339        C  0.45513399  0.13598287  0.32904890     0.18700
C340        C  0.43828104  0.10942435  0.34581942    -0.17900
C341        C  0.45014192  0.09880890  0.37122594    -0.20100
C342        C  0.47904763  0.11458909  0.38038232     0.20200
C343        C  0.49145449  0.10339269  0.40416662    -0.33100
C344        C  0.02072248  0.11874118  0.41205846     0.00900
C345        C  0.03718311  0.14628030  0.39740438    -0.24500
C346        C  0.48967066  0.18878159  0.29494406    -0.29000
C347        C  0.46091581  0.17253757  0.28483332     0.06500
C348        C  0.44366607  0.14631546  0.30243148    -0.27700
H349        H  0.04352523  0.21558688  0.31908366     0.11200
H350        H  0.06416245  0.19716898  0.36397899     0.12400
H351        H  0.41600144  0.09666964  0.33888033     0.11400
H352        H  0.43677671  0.07803766  0.38329698     0.10700
H353        H  0.47844666  0.08226120  0.41542658     0.16100
H354        H  0.05970707  0.15841065  0.40321741     0.12000
H355        H  0.00307669  0.20913817  0.28178339     0.14800
H356        H  0.42151050  0.13364491  0.29476920     0.14600
C357        C  0.14537784  0.24353036  0.53396411    -0.18300
C358        C  0.15625393  0.26599296  0.55944849    -0.20400
C359        C  0.18291179  0.27557961  0.57586492     0.20200
C360        C  0.19918783  0.26304264  0.56549537    -0.03300
C361        C  0.18830872  0.24053203  0.53952267    -0.06400
C362        C  0.16101434  0.23032452  0.52430955     0.20500
C363        C  0.20427589  0.22752135  0.52996049     0.18700
C364        C  0.23134379  0.23772506  0.54543465    -0.17900
C365        C  0.24203087  0.25987276  0.57132422    -0.20100
C366        C  0.22591204  0.27230640  0.58202202     0.20200
C367        C  0.23570625  0.29325965  0.60969503    -0.33100
C368        C  0.21925741  0.30528184  0.62101298     0.00900
C369        C  0.19319099  0.29684824  0.60325431    -0.24500
C370        C  0.14928871  0.20626850  0.50118789    -0.29000
C371        C  0.16437258  0.19204611  0.49333022     0.06500
C372        C  0.19238088  0.20365362  0.50660421    -0.27700
H373        H  0.12443565  0.23606229  0.52244090     0.11200
H374        H  0.14351199  0.27543469  0.56696842     0.12400
H375        H  0.24394142  0.22806091  0.53828379     0.11400
H376        H  0.26268748  0.26689147  0.58355159     0.10700
H377        H  0.25602160  0.29994320  0.62280781     0.16100
H378        H  0.18044021  0.30609844  0.61166234     0.12000
H379        H  0.12786777  0.19785503  0.49084146     0.14800
H380        H  0.20442822  0.19319546  0.50060156     0.14600
C381        C  0.27851366  0.09537067  0.36022241    -0.18300
C382        C  0.30079702  0.10663019  0.33441370    -0.20400
C383        C  0.31364296  0.13520921  0.32380998     0.20200
C384        C  0.30429055  0.15276522  0.33990198    -0.03300
C385        C  0.28164184  0.14133876  0.36574903    -0.06400
C386        C  0.26854208  0.11245853  0.37567564     0.20500
C387        C  0.27169563  0.15867018  0.38094857     0.18700
C388        C  0.28497732  0.18740972  0.37098019    -0.17900
C389        C  0.30755805  0.19878463  0.34562191    -0.20100
C390        C  0.31721177  0.18159642  0.32969036     0.20200
C391        C  0.33929079  0.19266278  0.30338670    -0.33100
C392        C  0.34833756  0.17516700  0.28663360     0.00900
C393        C  0.33544194  0.14646868  0.29712803    -0.24500
C394        C  0.24505969  0.10089396  0.39979779    -0.29000
C395        C  0.23402089  0.11766245  0.41361127     0.06500
C396        C  0.24805429  0.14676468  0.40481757    -0.27700
H397        H  0.26874507  0.07317128  0.36759710     0.11200
H398        H  0.30781814  0.09288435  0.32247760     0.12400
H399        H  0.27765585  0.20104324  0.38244430     0.11400
H400        H  0.31725409  0.22096142  0.33812889     0.10700
H401        H  0.34896629  0.21473500  0.29530037     0.16100
H402        H  0.34237198  0.13285537  0.28449207     0.12000
H403        H  0.23463004  0.07850630  0.40637012     0.14800
H404        H  0.23998923  0.16002232  0.41542434     0.14600
C405        C  0.20629988  0.60419976  0.43358075     0.79800
N406        N  0.19294238  0.61928445  0.44038733    -0.78500
C407        C  0.16587341  0.60612450  0.45347237     0.82200
N408        N  0.15203721  0.57771674  0.45947516    -0.78500
C409        C  0.16537172  0.56258393  0.45406206     0.82300
N410        N  0.19242725  0.57585740  0.44096688    -0.80200
C411        C  0.14991886  0.66347232  0.47550913     0.79800
N412        N  0.16447507  0.64944399  0.46957167    -0.78500
C413        C  0.15064261  0.62183937  0.45877307     0.82200
N414        N  0.12212817  0.60816730  0.45406429    -0.78500
C415        C  0.10741502  0.62199063  0.45862437     0.82300
N416        N  0.12132947  0.64964413  0.46943936    -0.80200
C417        C  0.03458099  0.60495616  0.43201657     0.79800
N418        N  0.06291600  0.61982861  0.43951848    -0.78500
C419        C  0.07648401  0.60641307  0.45273096     0.82200
N420        N  0.06165839  0.57789596  0.45801490    -0.78500
C421        C  0.03325158  0.56293632  0.45183888     0.82300
N422        N  0.01982880  0.57652549  0.43875401    -0.80200
C423        C  0.03392792  0.93200994  0.42988260     0.79800
N424        N  0.01915550  0.94579545  0.43624199    -0.78500
C425        C  0.03261340  0.97296146  0.44887967     0.82200
N426        N  0.06096132  0.98643234  0.45500712    -0.78500
C427        C  0.07583824  0.97280504  0.45009880     0.82300
N428        N  0.06231154  0.94559748  0.43744041    -0.80200
C429        C  0.47648505  0.98964768  0.47555430     0.79800
N430        N  0.49042596  0.51822711  0.46963642    -0.78500
C431        C  0.01767237  0.53193730  0.45708347     0.82200
N432        N  0.03106068  0.51698961  0.45061820    -0.78500
C433        C  0.01719042  0.98842061  0.45508039     0.82300
N434        N  0.48997277  0.97483463  0.46769114    -0.80200
C435        C  0.14816305  0.98943318  0.47922179     0.79800
N436        N  0.16300218  0.51796803  0.47311811    -0.78500
C437        C  0.14971367  0.53168847  0.45990055     0.82200
N438        N  0.12146009  0.51679940  0.45283660    -0.78500
C439        C  0.10658441  0.98824673  0.45744808     0.82300
N440        N  0.11994792  0.97465570  0.47083599    -0.80200
O441        O  0.30967056  0.88874083  0.73410393    -0.85800
O442        O  0.25939775  0.84089805  0.75218779    -0.82800
C443        C  0.23300861  0.82517343  0.75680254     0.97700
O444        O  0.21586591  0.82733879  0.73505912    -0.82900
O445        O  0.21914299  0.87798378  0.75257197    -0.85500
C446        C  0.22972703  0.90435782  0.75658675     1.02200
O447        O  0.24846612  0.92139238  0.73410097    -0.78300
O448        O  0.29657446  0.91926616  0.75078044    -0.78400
C449        C  0.31205734  0.90836484  0.75535989     1.02200
O450        O  0.29609773  0.87727652  0.65622887    -0.85800
O451        O  0.24790931  0.82742139  0.67405438    -0.82800
C452        C  0.22907881  0.82596914  0.65203560     0.97700
O453        O  0.21823182  0.84144717  0.65699811    -0.82900
O454        O  0.21568055  0.88902991  0.67467750    -0.85500
C455        C  0.23259300  0.90767130  0.65200344     1.02200
O456        O  0.25900579  0.91812584  0.65579563    -0.78300
O457        O  0.30954015  0.92087346  0.67294020    -0.78400
C458        C  0.31170848  0.90362451  0.65144120     1.02100
Cr459      Cr  0.27671349  0.86014317  0.70417539     1.93700
Cr460      Cr  0.22030951  0.86045692  0.70480802     1.93200
Cr461      Cr  0.27682960  0.91681766  0.70343793     1.39100
O462        O  0.25800199  0.87914974  0.70419738    -1.23500
C463        C  0.03264737  0.60134471  0.97733957     0.79800
N464        N  0.06105304  0.61634046  0.96993763    -0.78500
C465        C  0.07486339  0.60295328  0.95723057     0.82200
N466        N  0.06023695  0.57445280  0.95215470    -0.78500
C467        C  0.03184812  0.55937274  0.95813283     0.82300
N468        N  0.01812421  0.57284831  0.97081253    -0.80200
C469        C  0.47581575  0.98683582  0.93123513     0.79800
N470        N  0.48923907  0.97181971  0.93805704    -0.78500
C471        C  0.01624319  0.98503419  0.95127320     0.82200
N472        N  0.02995431  0.51346280  0.95731252    -0.78500
C473        C  0.01651134  0.52850470  0.95189035     0.82300
N474        N  0.48952058  0.51513903  0.93875739    -0.80200
C475        C  0.03246826  0.92822844  0.97612838     0.79800
N476        N  0.01773358  0.94196625  0.96924814    -0.78500
C477        C  0.03146526  0.96931326  0.95710799     0.82200
N478        N  0.05997641  0.98292545  0.95204496    -0.78500
C479        C  0.07480076  0.96931665  0.95753676     0.82300
N480        N  0.06102368  0.94202791  0.96970508    -0.80200
C481        C  0.14824911  0.98663430  0.93306977     0.79800
N482        N  0.16277195  0.51504588  0.94017698    -0.78500
C483        C  0.14898842  0.52847416  0.95270392     0.82200
N484        N  0.12046322  0.51340202  0.95781929    -0.78500
C485        C  0.10581291  0.98494572  0.95214259     0.82300
N486        N  0.11974268  0.97163085  0.93966122    -0.80200
C487        C  0.20460087  0.60150648  0.97965683     0.79800
N488        N  0.19103170  0.61618605  0.97170699    -0.78500
C489        C  0.16425070  0.60271099  0.95787607     0.82200
N490        N  0.15079293  0.57425856  0.95231605    -0.78500
C491        C  0.16429370  0.55940864  0.95885031     0.82300
N492        N  0.19120429  0.57307943  0.97260273    -0.80200
C493        C  0.14800942  0.65916869  0.93121672     0.79800
N494        N  0.11951370  0.64558217  0.93819617    -0.78500
C495        C  0.10578171  0.61846570  0.95109627     0.82200
N496        N  0.12055287  0.60482464  0.95674967    -0.78500
C497        C  0.14898272  0.61825125  0.95118599     0.82300
N498        N  0.16268723  0.64541453  0.93837010    -0.80200
O499        O  0.42176698  0.74979566  0.15817193    -0.85800
O500        O  0.37186330  0.70206078  0.17646940    -0.82800
C501        C  0.37013632  0.68358147  0.15356329     0.97700
O502        O  0.38626423  0.67328266  0.15678624    -0.82900
O503        O  0.43391892  0.67023678  0.17361667    -0.85500
C504        C  0.45279708  0.68735771  0.15141456     1.02200
O505        O  0.46331401  0.71373434  0.15576906    -0.78300
O506        O  0.46551727  0.76375511  0.17482878    -0.78400
C507        C  0.44807993  0.76530358  0.15302867     1.02200
O508        O  0.43417062  0.76346589  0.23613053    -0.85800
O509        O  0.38670102  0.71293359  0.25398146    -0.82800
C510        C  0.37050735  0.68655400  0.25731938     0.97700
O511        O  0.37237253  0.66966664  0.23479283    -0.82900
O512        O  0.42291554  0.67217284  0.25148294    -0.85500
C513        C  0.44936166  0.68284824  0.25528298     1.02200
O514        O  0.46635023  0.70202513  0.23329667    -0.78300
O515        O  0.46419732  0.74979392  0.25260260    -0.78400
C516        C  0.45340083  0.76534143  0.25776369     1.02100
Cr517      Cr  0.40519825  0.73061293  0.20613052     1.93700
Cr518      Cr  0.40536520  0.67435428  0.20422956     1.93200
Cr519      Cr  0.46182115  0.73083333  0.20418430     1.39100
O520        O  0.42415863  0.71194324  0.20492825    -1.23500
C521        C  0.27469480  0.68116965  0.05656345    -0.18300
C522        C  0.29744983  0.69239708  0.08155500    -0.20400
C523        C  0.31198048  0.67776986  0.08934386     0.20200
C524        C  0.30392231  0.65188455  0.07107910    -0.03300
C525        C  0.28074293  0.64039952  0.04610167    -0.06400
C526        C  0.26593666  0.65500692  0.03909600     0.20500
C527        C  0.27191603  0.61394352  0.02898856     0.18700
C528        C  0.28697417  0.59972113  0.03601907    -0.17900
C529        C  0.31012763  0.61124545  0.06041728    -0.20100
C530        C  0.31852933  0.63711019  0.07848202     0.20200
C531        C  0.34077398  0.64805177  0.10450398    -0.33100
C532        C  0.34824682  0.67330598  0.12387760     0.00900
C533        C  0.33397069  0.68823083  0.11567495    -0.24500
C534        C  0.24206690  0.64281649  0.01574771    -0.29000
C535        C  0.23223650  0.61580766  0.99983645     0.06500
C536        C  0.24771622  0.60179625  0.00607833    -0.27700
H537        H  0.26359128  0.69269402  0.05144817     0.11200
H538        H  0.30344071  0.71237168  0.09518554     0.12400
H539        H  0.28059741  0.57945055  0.02302904     0.11400
H540        H  0.32114016  0.59964915  0.06569371     0.10700
H541        H  0.35164423  0.63641431  0.11053502     0.16100
H542        H  0.33974386  0.70786914  0.13012386     0.12000
H543        H  0.23046172  0.65392912  0.01131931     0.14800
H544        H  0.24055459  0.58110374  0.99388605     0.14600
C545        C  0.02811949  0.83331347  0.07549195    -0.18300
C546        C  0.03983387  0.85569795  0.04999187    -0.20400
C547        C  0.02285411  0.86527816  0.03329235     0.20200
C548        C  0.49357336  0.85150949  0.04136749    -0.03300
C549        C  0.48169214  0.82877478  0.06703929    -0.06400
C550        C  0.99921912  0.82006716  0.08465802     0.20500
C551        C  0.45254531  0.81542841  0.07598859     0.18700
C552        C  0.43540739  0.82442479  0.05831858    -0.17900
C553        C  0.44722636  0.84708677  0.03306232    -0.20100
C554        C  0.47638606  0.86111550  0.02488490     0.20200
C555        C  0.48886788  0.88525964  0.00180053    -0.33100
C556        C  0.01837999  0.90002387  0.99505972     0.00900
C557        C  0.03495297  0.88914304  0.00994851    -0.24500
C558        C  0.48778876  0.79886795  0.11194623    -0.29000
C559        C  0.45900847  0.78611287  0.12207458     0.06500
C560        C  0.44130184  0.79397764  0.10323773    -0.27700
H561        H  0.04181692  0.82673874  0.08862762     0.11200
H562        H  0.06233323  0.86596789  0.04400860     0.12400
H563        H  0.41296632  0.81435433  0.06466156     0.11400
H564        H  0.43364136  0.85403332  0.02051873     0.10700
H565        H  0.47574084  0.89315499  0.99029758     0.16100
H566        H  0.05762243  0.90006205  0.00498396     0.12000
H567        H  0.00151524  0.79263878  0.12580987     0.14800
H568        H  0.41904781  0.78412990  0.11064573     0.14600
C569        C  0.44156021  0.60622028  0.07632852    -0.18300
C570        C  0.45238456  0.59425813  0.05130769    -0.20400
C571        C  0.47914056  0.61099396  0.03483134     0.20200
C572        C  0.49477036  0.64024068  0.04289981    -0.03300
C573        C  0.48377379  0.65236558  0.06809440    -0.06400
C574        C  0.45723230  0.63515143  0.08525888     0.20500
C575        C  0.99964077  0.68151832  0.07679744     0.18700
C576        C  0.02611717  0.69834466  0.05967376    -0.17900
C577        C  0.03706002  0.68631483  0.03487739    -0.20100
C578        C  0.02173189  0.65722551  0.02665438     0.20200
C579        C  0.03333059  0.64467929  0.00357455    -0.33100
C580        C  0.01845568  0.61525073  0.99664767     0.00900
C581        C  0.49092855  0.59876702  0.01155892    -0.24500
C582        C  0.44710029  0.64699179  0.11166025    -0.29000
C583        C  0.46302566  0.67590931  0.12124375     0.06500
C584        C  0.48907429  0.69316485  0.10307117    -0.27700
H585        H  0.42106766  0.59271718  0.08913621     0.11200
H586        H  0.44004800  0.57178645  0.04538791     0.12400
H587        H  0.03859380  0.72075969  0.06591299     0.11400
H588        H  0.05776695  0.69971344  0.02258643     0.10700
H589        H  0.05441455  0.65773934  0.99212145     0.16100
H590        H  0.47909936  0.57614047  0.00648895     0.12000
H591        H  0.42687992  0.63351742  0.12516456     0.14800
H592        H  0.00152983  0.71543074  0.11020837     0.14600
C593        C  0.23283731  0.73889679  0.87104665    -0.18300
C594        C  0.24464080  0.76189535  0.84627134    -0.20400
C595        C  0.22777986  0.77195828  0.83035967     0.20200
C596        C  0.19886533  0.75912446  0.84040708    -0.03300
C597        C  0.18698114  0.73599833  0.86562647    -0.06400
C598        C  0.20392128  0.72552059  0.88053229     0.20500
C599        C  0.15794696  0.72286856  0.87503038     0.18700
C600        C  0.14124424  0.73339013  0.85996842    -0.17900
C601        C  0.15294650  0.75614425  0.83493543    -0.20100
C602        C  0.18161980  0.76889361  0.82453752     0.20200
C603        C  0.19310915  0.79077230  0.79792624    -0.33100
C604        C  0.22176295  0.80331471  0.78692772     0.00900
C605        C  0.23910072  0.79412057  0.80397206    -0.24500
C606        C  0.19146420  0.70130325  0.90355820    -0.29000
C607        C  0.16215761  0.68724967  0.91180156     0.06500
C608        C  0.14584175  0.69885007  0.89822228    -0.27700
H609        H  0.24624225  0.73126841  0.88230870     0.11200
H610        H  0.26690924  0.77150914  0.83904630     0.12400
H611        H  0.11893130  0.72364329  0.86697983     0.11400
H612        H  0.13942657  0.76348271  0.82323356     0.10700
H613        H  0.17959575  0.79783415  0.78542843     0.16100
H614        H  0.26119458  0.80359638  0.79585992     0.12000
H615        H  0.20443075  0.69286856  0.91394797     0.14800
H616        H  0.12333800  0.68849504  0.90432207     0.14600
C617        C  0.37819186  0.89542457  0.83574747    -0.18300
C618        C  0.40062468  0.90608986  0.86117397    -0.20400
C619        C  0.41207451  0.93373575  0.87513945     0.20200
C620        C  0.40029104  0.95052315  0.86414236    -0.03300
C621        C  0.37756160  0.93971670  0.83854421    -0.06400
C622        C  0.36677233  0.91217997  0.82392251     0.20500
C623        C  0.36608605  0.95666932  0.82696999     0.18700
C624        C  0.37717982  0.98411415  0.84153218    -0.17900
C625        C  0.39979671  0.99487006  0.86675351    -0.20100
C626        C  0.41169118  0.97836197  0.87792251     0.20200
C627        C  0.43537924  0.98953819  0.90157929    -0.33100
C628        C  0.44810727  0.97338623  0.91139573     0.00900
C629        C  0.43571871  0.94516986  0.89884767    -0.24500
C630        C  0.34512015  0.90205367  0.79723123    -0.29000
C631        C  0.33384870  0.91894007  0.78505028     0.06500
C632        C  0.34412528  0.94608427  0.80053076    -0.27700
H633        H  0.37002222  0.87416801  0.82492840     0.11200
H634        H  0.40935507  0.89288715  0.86940468     0.12400
H635        H  0.36862664  0.99741663  0.83301396     0.11400
H636        H  0.40826797  0.01628772  0.87710890     0.10700
H637        H  0.44452076  0.01123465  0.91114959     0.16100
H638        H  0.44513583  0.93240396  0.90622485     0.12000
H639        H  0.33713583  0.88100415  0.78572999     0.14800
H640        H  0.33560039  0.95925458  0.79124960     0.14600
C641        C  0.24059496  0.98397547  0.83488444    -0.18300
C642        C  0.22949814  0.99525530  0.86052713    -0.20400
C643        C  0.20249863  0.97812062  0.87614874     0.20200
C644        C  0.18692048  0.94912652  0.86676342    -0.03300
C645        C  0.19822428  0.93767715  0.84106874    -0.06400
C646        C  0.22496765  0.95533158  0.82456327     0.20500
C647        C  0.18244452  0.90877727  0.83117177     0.18700
C648        C  0.15577536  0.89148670  0.84754801    -0.17900
C649        C  0.14446923  0.90288939  0.87272199    -0.20100
C650        C  0.15969342  0.93175997  0.88214168     0.20200
C651        C  0.14775367  0.94377224  0.90553212    -0.33100
C652        C  0.16262224  0.97300524  0.91370325     0.00900
C653        C  0.19041628  0.98976894  0.89981314    -0.24500
C654        C  0.23531990  0.94419097  0.79746010    -0.29000
C655        C  0.21943910  0.91552925  0.78683100     0.06500
C656        C  0.19327449  0.89783093  0.80443425    -0.27700
H657        H  0.26125530  0.49779104  0.82268924     0.13600
H658        H  0.24179033  0.51754207  0.86753697     0.12400
H659        H  0.14341260  0.86923412  0.84035423     0.11400
H660        H  0.12358362  0.88920027  0.88435918     0.10700
H661        H  0.12644760  0.93050720  0.91621107     0.16100
H662        H  0.20223731  0.51224655  0.90589595     0.12000
H663        H  0.25565458  0.95792470  0.78437296     0.14800
H664        H  0.18089609  0.87572610  0.79647557     0.14600
C665        C  0.23262547  0.99304627  0.53721084    -0.18300
C666        C  0.24442793  0.98158722  0.56144170    -0.20400
C667        C  0.22737677  0.95486283  0.57775026     0.20200
C668        C  0.19832396  0.93913091  0.56848092    -0.03300
C669        C  0.18646692  0.95057833  0.54365705    -0.06400
C670        C  0.20359071  0.97791274  0.52857142     0.20500
C671        C  0.15731644  0.93506179  0.53494452     0.18700
C672        C  0.14044709  0.90793873  0.55026702    -0.17900
C673        C  0.15211604  0.89672692  0.57509013    -0.20100
C674        C  0.18090559  0.91234227  0.58489154     0.20200
C675        C  0.19238526  0.90199769  0.61153860    -0.33100
C676        C  0.22117825  0.91789879  0.62181620     0.00900
C677        C  0.23868223  0.94401302  0.60397939    -0.24500
C678        C  0.19122480  0.99000549  0.50617333    -0.29000
C679        C  0.16188885  0.97514426  0.49851557     0.06500
C680        C  0.14529913  0.94729206  0.51220469    -0.27700
H681        H  0.24614803  0.01399760  0.52572312     0.11200
H682        H  0.26679556  0.99392296  0.56808084     0.12400
H683        H  0.11805977  0.89565385  0.54373312     0.11400
H684        H  0.13846713  0.87600928  0.58715557     0.10700
H685        H  0.17877253  0.88167924  0.62466416     0.16100
H686        H  0.26088492  0.95640056  0.61151275     0.12000
H687        H  0.20436149  0.01135272  0.49564242     0.14800
H688        H  0.12273717  0.93549779  0.50655963     0.14600
C689        C  0.38053069  0.98413892  0.57476074    -0.18300
C690        C  0.40300690  0.99603564  0.54929355    -0.20400
C691        C  0.41325606  0.97941790  0.53313773     0.20200
C692        C  0.40018374  0.95032228  0.54197191    -0.03300
C693        C  0.37731010  0.93823677  0.56755316    -0.06400
C694        C  0.36777380  0.95537584  0.58438568     0.20500
C695        C  0.36448865  0.90923786  0.57696965     0.18700
C696        C  0.37443165  0.89252804  0.56023137    -0.17900
C697        C  0.39723871  0.90455234  0.53512469    -0.20100
C698        C  0.41048170  0.93349995  0.52612527     0.20200
C699        C  0.43444738  0.94611877  0.50268935    -0.33100
C700        C  0.44845041  0.97545121  0.49500666     0.00900
C701        C  0.43702568  0.99168583  0.50948077    -0.24500
C702        C  0.34605618  0.94366039  0.61111043    -0.29000
C703        C  0.33342980  0.91490910  0.62130615     0.06500
C704        C  0.34243834  0.89767366  0.60353119    -0.27700
H705        H  0.37336817  0.99756494  0.58733366     0.11200
H706        H  0.41275082  0.01839139  0.54280052     0.12400
H707        H  0.36487000  0.87023092  0.56702506     0.11400
H708        H  0.40480870  0.89127497  0.52317614     0.10700
H709        H  0.44279061  0.93323840  0.49160785     0.16100
H710        H  0.44738375  0.01421547  0.50381351     0.12000
H711        H  0.33914921  0.95710438  0.62429022     0.14800
H712        H  0.33289689  0.87551433  0.61113643     0.14600
C713        C  0.44229967  0.83497712  0.33348308    -0.18300
C714        C  0.45334681  0.85803822  0.35795648    -0.20400
C715        C  0.48021002  0.86817853  0.37400991     0.20200
C716        C  0.49570177  0.85433660  0.36625471    -0.03300
C717        C  0.48448850  0.83094317  0.34154297    -0.06400
C718        C  0.45790065  0.82160427  0.32462034     0.20500
C719        C  0.50024718  0.81749689  0.33290232     0.18700
C720        C  0.02671249  0.82709631  0.34997719    -0.17900
C721        C  0.03786811  0.85033870  0.37433259    -0.20100
C722        C  0.02275159  0.86442877  0.38217933     0.20200
C723        C  0.03462125  0.88899199  0.40451695    -0.33100
C724        C  0.01982988  0.90373555  0.41106422     0.00900
C725        C  0.49222040  0.89252766  0.39653013    -0.24500
C726        C  0.44769646  0.79964505  0.29828252    -0.29000
C727        C  0.46365126  0.78674012  0.28831455     0.06500
C728        C  0.48963545  0.79532263  0.30655477    -0.27700
H729        H  0.42176472  0.82795138  0.32090090     0.11200
H730        H  0.44110272  0.86833430  0.36370884     0.12400
H731        H  0.03908842  0.81698513  0.34390307     0.11400
H732        H  0.05859168  0.85764590  0.38646007     0.10700
H733        H  0.05576415  0.89713068  0.41571109     0.16100
H734        H  0.48042875  0.90342900  0.40133339     0.12000
H735        H  0.42747607  0.79297844  0.28493328     0.14800
H736        H  0.50206167  0.78546449  0.29931527     0.14600
C737        C  0.03005720  0.69500540  0.33161346    -0.18300
C738        C  0.04183657  0.68451415  0.35728072    -0.20400
C739        C  0.02510164  0.65769097  0.37344777     0.20200
C740        C  0.49603398  0.64161826  0.36442092    -0.03300
C741        C  0.48410599  0.65226133  0.33860752    -0.06400
C742        C  0.00133344  0.67890357  0.32176954     0.20500
C743        C  0.45513602  0.63598404  0.32905022     0.18700
C744        C  0.43828276  0.60942580  0.34582134    -0.17900
C745        C  0.45014372  0.59880975  0.37122688    -0.20100
C746        C  0.47904979  0.61458908  0.38038171     0.20200
C747        C  0.49145658  0.60339213  0.40416530    -0.33100
C748        C  0.02072479  0.61873995  0.41205610     0.00900
C749        C  0.03718583  0.64627878  0.39740127    -0.24500
C750        C  0.48967320  0.68878205  0.29494400    -0.29000
C751        C  0.46091792  0.67253884  0.28483481     0.06500
C752        C  0.44366794  0.64631712  0.30243373    -0.27700
H753        H  0.04352869  0.71558567  0.31908050     0.11200
H754        H  0.06416597  0.69716692  0.36397452     0.12400
H755        H  0.41600288  0.59667179  0.33888348     0.11400
H756        H  0.43677825  0.57803878  0.38329846     0.10700
H757        H  0.47844850  0.58226091  0.41542581     0.16100
H758        H  0.05970996  0.65840863  0.40321353     0.12000
H759        H  0.00307948  0.70913828  0.28178268     0.14800
H760        H  0.42151207  0.63364721  0.29477269     0.14600
C761        C  0.14537686  0.74352745  0.53396594    -0.18300
C762        C  0.15625268  0.76598973  0.55945069    -0.20400
C763        C  0.18291145  0.77557784  0.57586507     0.20200
C764        C  0.19918865  0.76304267  0.56549311    -0.03300
C765        C  0.18830983  0.74053241  0.53951988    -0.06400
C766        C  0.16101458  0.73032344  0.52430882     0.20500
C767        C  0.20427814  0.72752346  0.52995513     0.18700
C768        C  0.23134695  0.73772873  0.54542724    -0.17900
C769        C  0.24203372  0.75987602  0.57131751    -0.20100
C770        C  0.22591374  0.77230784  0.58201796     0.20200
C771        C  0.23570758  0.79326062  0.60969175    -0.33100
C772        C  0.21925762  0.80528109  0.62101183     0.00900
C773        C  0.19319035  0.79684612  0.60325482    -0.24500
C774        C  0.14928926  0.70626759  0.50118691    -0.29000
C775        C  0.16437416  0.69204658  0.49332718     0.06500
C776        C  0.19238335  0.70365578  0.50659862    -0.27700
H777        H  0.12443394  0.73605812  0.52244451     0.11200
H778        H  0.14350981  0.77543002  0.56697260     0.12400
H779        H  0.24394552  0.72806598  0.53827431     0.11400
H780        H  0.26269101  0.76689583  0.58354339     0.10700
H781        H  0.25602360  0.79994526  0.62280335     0.16100
H782        H  0.18043867  0.80609493  0.61166451     0.12000
H783        H  0.12786765  0.69785291  0.49084238     0.14800
H784        H  0.20443156  0.69319885  0.50059405     0.14600
C785        C  0.27851423  0.59537021  0.36022243    -0.18300
C786        C  0.30079717  0.60662982  0.33441306    -0.20400
C787        C  0.31364340  0.63520905  0.32381024     0.20200
C788        C  0.30429157  0.65276511  0.33990355    -0.03300
C789        C  0.28164320  0.64133853  0.36575117    -0.06400
C790        C  0.26854328  0.61245815  0.37567707     0.20500
C791        C  0.27169757  0.65866999  0.38095210     0.18700
C792        C  0.28497944  0.68740971  0.37098446    -0.17900
C793        C  0.30755991  0.69878474  0.34562574    -0.20100
C794        C  0.31721311  0.68159652  0.32969286     0.20200
C795        C  0.33929201  0.69266307  0.30338893    -0.33100
C796        C  0.34833838  0.67516729  0.28663477     0.00900
C797        C  0.33544225  0.64646870  0.29712811    -0.24500
C798        C  0.24506130  0.60089350  0.39979994    -0.29000
C799        C  0.23402294  0.61766205  0.41361463     0.06500
C800        C  0.24805655  0.64676441  0.40482167    -0.27700
H801        H  0.26874552  0.57317075  0.36759658     0.11200
H802        H  0.30781780  0.59288394  0.32247591     0.12400
H803        H  0.27765834  0.70104321  0.38244949     0.11400
H804        H  0.31725619  0.72096172  0.33813344     0.10700
H805        H  0.34896785  0.71473549  0.29530342     0.16100
H806        H  0.34237187  0.63285535  0.28449126     0.12000
H807        H  0.23463154  0.57850576  0.40637171     0.14800
H808        H  0.23999183  0.66002209  0.41542937     0.14600
C809        C  0.70629776  0.10420022  0.43357736     0.79800
N810        N  0.69294036  0.11928500  0.44038409    -0.78500
C811        C  0.66587149  0.10612512  0.45346957     0.82200
N812        N  0.65203537  0.07771745  0.45947267    -0.78500
C813        C  0.66536980  0.06258457  0.45405953     0.82300
N814        N  0.69242520  0.07585791  0.44096387    -0.80200
C815        C  0.64991720  0.16347243  0.47551073     0.79800
N816        N  0.66447334  0.14944424  0.46957163    -0.78500
C817        C  0.65064088  0.12184007  0.45877119     0.82200
N818        N  0.62212644  0.10816828  0.45406221    -0.78500
C819        C  0.60741339  0.12199159  0.45862379     0.82300
N820        N  0.62132786  0.14964464  0.46944069    -0.80200
C821        C  0.53457897  0.10495756  0.43201854     0.79800
N822        N  0.56291414  0.11982994  0.43951953    -0.78500
C823        C  0.57648231  0.10641422  0.45273100     0.82200
N824        N  0.56165669  0.07789712  0.45801482    -0.78500
C825        C  0.53324979  0.06293761  0.45183965     0.82300
N826        N  0.51982687  0.07652691  0.43875584    -0.80200
C827        C  0.53393032  0.43200896  0.42988152     0.79800
N828        N  0.51915792  0.44579446  0.43624111    -0.78500
C829        C  0.53261569  0.47296030  0.44887942     0.82200
N830        N  0.56096354  0.48643104  0.45500741    -0.78500
C831        C  0.57584051  0.47280379  0.45009896     0.82300
N832        N  0.56231391  0.44559637  0.43743984    -0.80200
C833        C  0.97648720  0.48964625  0.47555452     0.79800
N834        N  0.99042404  0.01822857  0.46963664    -0.78500
C835        C  0.51767050  0.03193865  0.45708398     0.82200
N836        N  0.53105868  0.01699085  0.45061859    -0.78500
C837        C  0.51719262  0.48841938  0.45508026     0.82300
N838        N  0.98997505  0.47483333  0.46769137    -0.80200
C839        C  0.64816573  0.48943232  0.47922111     0.79800
N840        N  0.66299992  0.01796879  0.47311766    -0.78500
C841        C  0.64971170  0.03168921  0.45989884     0.82200
N842        N  0.62145812  0.01680030  0.45283499    -0.78500
C843        C  0.60658671  0.48824564  0.45744848     0.82300
N844        N  0.61995056  0.47465463  0.47083530    -0.80200
O845        O  0.80967162  0.38873982  0.73410557    -0.85800
O846        O  0.75939796  0.34089788  0.75218863    -0.82800
C847        C  0.73300873  0.32517372  0.75680309     0.97700
O848        O  0.71586647  0.32733978  0.73505968    -0.82900
O849        O  0.71914590  0.37798556  0.75257312    -0.85500
C850        C  0.72973019  0.40435960  0.75658775     1.02200
O851        O  0.74846921  0.42139397  0.73410176    -0.78300
O852        O  0.79657647  0.41926596  0.75078172    -0.78400
C853        C  0.81205882  0.40836408  0.75536139     1.02200
O854        O  0.79609939  0.37727619  0.65623017    -0.85800
O855        O  0.74790947  0.32742189  0.67405515    -0.82800
C856        C  0.72907905  0.32597005  0.65203654     0.97700
O857        O  0.71823265  0.34144861  0.65699902    -0.82900
O858        O  0.71568357  0.38903230  0.67467891    -0.85500
C859        C  0.73259631  0.40767295  0.65200432     1.02200
O860        O  0.75900902  0.41812703  0.65579659    -0.78300
O861        O  0.80954268  0.42087330  0.67294160    -0.78400
C862        C  0.81171077  0.40362415  0.65144272     1.02100
Cr863      Cr  0.77671435  0.36014296  0.70417646     1.93700
Cr864      Cr  0.72031133  0.36045854  0.70480904     1.93200
Cr865      Cr  0.77683228  0.41681831  0.70343902     1.39100
O866        O  0.75800380  0.37915041  0.70419828    -1.23500
C867        C  0.53264563  0.10134444  0.97733605     0.79800
N868        N  0.56105130  0.11634000  0.96993421    -0.78500
C869        C  0.57486153  0.10295255  0.95722773     0.82200
N870        N  0.56023501  0.07445202  0.95215238    -0.78500
C871        C  0.53184615  0.05937217  0.95813044     0.82300
N872        N  0.51812239  0.07284802  0.97080946    -0.80200
C873        C  0.97581855  0.48683657  0.93123475     0.79800
N874        N  0.98924195  0.47182057  0.93805679    -0.78500
C875        C  0.51624585  0.48503507  0.95127373     0.82200
N876        N  0.52995201  0.01346205  0.95731109    -0.78500
C877        C  0.51650917  0.02850406  0.95188894     0.82300
N878        N  0.98951815  0.01513839  0.93875697    -0.80200
C879        C  0.53247079  0.42822938  0.97612930     0.79800
N880        N  0.51773621  0.44196725  0.96924887    -0.78500
C881        C  0.53146794  0.46931424  0.95710877     0.82200
N882        N  0.55997908  0.48292641  0.95204587    -0.78500
C883        C  0.57480342  0.46931762  0.95753786     0.82300
N884        N  0.56102627  0.44202882  0.96970623    -0.80200
C885        C  0.64825175  0.48663564  0.93307002     0.79800
N886        N  0.66276931  0.01504449  0.94017691    -0.78500
C887        C  0.64898585  0.02847290  0.95270367     0.82200
N888        N  0.62046060  0.01340091  0.95781859    -0.78500
C889        C  0.60581557  0.48494679  0.95214353     0.82300
N890        N  0.61974538  0.47163206  0.93966187    -0.80200
C891        C  0.70459830  0.10150506  0.97965705     0.79800
N892        N  0.69102936  0.11618476  0.97170670    -0.78500
C893        C  0.66424854  0.10270984  0.95787520     0.82200
N894        N  0.65079072  0.07425742  0.95231518    -0.78500
C895        C  0.66429124  0.05940735  0.95885006     0.82300
N896        N  0.69120170  0.07307801  0.97260301    -0.80200
C897        C  0.64800783  0.15916783  0.93121534     0.79800
N898        N  0.61951206  0.14558134  0.93819422    -0.78500
C899        C  0.60577986  0.11846479  0.95109389     0.82200
N900        N  0.62055084  0.10482360  0.95674755    -0.78500
C901        C  0.64898077  0.11825021  0.95118456     0.82300
N902        N  0.66268552  0.14541359  0.93836902    -0.80200
O903        O  0.92176556  0.24979465  0.15816997    -0.85800
O904        O  0.87186181  0.20205997  0.17646837    -0.82800
C905        C  0.87013451  0.18358053  0.15356222     0.97700
O906        O  0.88626248  0.17328178  0.15678461    -0.82900
O907        O  0.93391698  0.17023539  0.17361477    -0.85500
C908        C  0.95279528  0.18735629  0.15141275     1.02200
O909        O  0.96331210  0.21373289  0.15576703    -0.78300
O910        O  0.96551577  0.26375377  0.17482679    -0.78400
C911        C  0.94807853  0.26530240  0.15302663     1.02200
O912        O  0.93416994  0.26346516  0.23612863    -0.85800
O913        O  0.88670023  0.21293300  0.25398008    -0.82800
C914        C  0.87050630  0.18655344  0.25731801     0.97700
O915        O  0.87237098  0.16966592  0.23479122    -0.82900
O916        O  0.92291367  0.17217153  0.25148102    -0.85500
C917        C  0.94935975  0.18284679  0.25528105     1.02200
O918        O  0.96634842  0.20202351  0.23329458    -0.78300
O919        O  0.96419616  0.24979256  0.25260058    -0.78400
C920        C  0.95340009  0.26534042  0.25776173     1.02100
Cr921      Cr  0.90519711  0.23061214  0.20612893     1.93700
Cr922      Cr  0.90536343  0.17435316  0.20422776     1.93200
Cr923      Cr  0.96181960  0.23083193  0.20418227     1.39100
O924        O  0.92415715  0.21194212  0.20492644    -1.23500
C925        C  0.77468961  0.18116647  0.05656799    -0.18300
C926        C  0.79744477  0.19239395  0.08155924    -0.20400
C927        C  0.81197669  0.17776769  0.08934597     0.20200
C928        C  0.80391953  0.15188320  0.07107955    -0.03300
C929        C  0.78074002  0.14039810  0.04610236    -0.06400
C930        C  0.76593260  0.15500460  0.03909870     0.20500
C931        C  0.77191421  0.11394292  0.02898742     0.18700
C932        C  0.78697345  0.09972139  0.03601607    -0.17900
C933        C  0.81012696  0.11124575  0.06041423    -0.20100
C934        C  0.81852767  0.13710969  0.07848060     0.20200
C935        C  0.84077251  0.14805135  0.10450225    -0.33100
C936        C  0.84824452  0.17330482  0.12387724     0.00900
C937        C  0.83396716  0.18822876  0.11567659    -0.24500
C938        C  0.74206288  0.14281415  0.01575044    -0.29000
C939        C  0.73223368  0.11580618  0.99983712     0.06500
C940        C  0.74771439  0.10179558  0.00607718    -0.27700
H941        H  0.76358512  0.19269010  0.05145432     0.11200
H942        H  0.80343478  0.21236786  0.09519125     0.12400
H943        H  0.78059755  0.07945149  0.02302462     0.11400
H944        H  0.82114035  0.09965009  0.06568928     0.10700
H945        H  0.85164372  0.13641458  0.11053182     0.16100
H946        H  0.83973957  0.20786645  0.13012671     0.12000
H947        H  0.73045681  0.15392606  0.01132358     0.14800
H948        H  0.74055361  0.08110372  0.99388332     0.14600
C949        C  0.52811911  0.33331194  0.07549107    -0.18300
C950        C  0.53983419  0.35569692  0.04999175    -0.20400
C951        C  0.52285505  0.36527797  0.03329244     0.20200
C952        C  0.99357419  0.35150972  0.04136721    -0.03300
C953        C  0.98169230  0.32877455  0.06703834    -0.06400
C954        C  0.49921868  0.32006601  0.08465672     0.20500
C955        C  0.95254543  0.31542865  0.07598736     0.18700
C956        C  0.93540817  0.32442605  0.05831784    -0.17900
C957        C  0.94722778  0.34708841  0.03306216    -0.20100
C958        C  0.97638751  0.36111656  0.02488494     0.20200
C959        C  0.98886993  0.38526094  0.00180099    -0.33100
C960        C  0.51838211  0.40002466  0.99506039     0.00900
C961        C  0.53495454  0.38914317  0.00994908    -0.24500
C962        C  0.98778767  0.29886638  0.11194432    -0.29000
C963        C  0.95900738  0.28611179  0.12207256     0.06500
C964        C  0.94130132  0.29397741  0.10323592    -0.27700
H965        H  0.54181609  0.32673655  0.08862655     0.11200
H966        H  0.56233357  0.36596654  0.04400884     0.12400
H967        H  0.91296713  0.31435610  0.06466073     0.11400
H968        H  0.93364325  0.35403564  0.02051888     0.10700
H969        H  0.97574331  0.39315681  0.99029824     0.16100
H970        H  0.55762405  0.40006187  0.00498476     0.12000
H971        H  0.50151375  0.29263655  0.12580773     0.14800
H972        H  0.91904729  0.28413005  0.11064378     0.14600
C973        C  0.94155959  0.10621913  0.07632760    -0.18300
C974        C  0.95238383  0.09425725  0.05130626    -0.20400
C975        C  0.97913948  0.11099337  0.03482924     0.20200
C976        C  0.99476916  0.14024009  0.04289776    -0.03300
C977        C  0.98377269  0.15236473  0.06809288    -0.06400
C978        C  0.95723143  0.13515031  0.08525782     0.20500
C979        C  0.49963948  0.18151750  0.07679581     0.18700
C980        C  0.52611565  0.19834405  0.05967172    -0.17900
C981        C  0.53705850  0.18631446  0.03487494    -0.20100
C982        C  0.52173050  0.15722513  0.02665182     0.20200
C983        C  0.53332909  0.14467908  0.00357142    -0.33100
C984        C  0.51845417  0.11525053  0.99664436     0.00900
C985        C  0.99092725  0.09876666  0.01155612    -0.24500
C986        C  0.94709932  0.14699042  0.11165929    -0.29000
C987        C  0.96302424  0.17590802  0.12124234     0.06500
C988        C  0.98907278  0.19316380  0.10306964    -0.27700
H989        H  0.92106725  0.09271581  0.08913574     0.11200
H990        H  0.94004746  0.07178554  0.04538656     0.12400
H991        H  0.53859217  0.22075915  0.06591094     0.11400
H992        H  0.55776523  0.19971322  0.02258368     0.10700
H993        H  0.55441292  0.15773921  0.99211800     0.16100
H994        H  0.97909813  0.07614011  0.00648614     0.12000
H995        H  0.92687911  0.13351583  0.12516388     0.14800
H996        H  0.50152810  0.21542979  0.11020659     0.14600
C997        C  0.73283635  0.23889703  0.87104788    -0.18300
C998        C  0.74464002  0.26189568  0.84627272    -0.20400
C999        C  0.72777900  0.27195815  0.83036006     0.20200
C1000       C  0.69886423  0.25912380  0.84040623    -0.03300
C1001       C  0.68697985  0.23599759  0.86562549    -0.06400
C1002       C  0.70392012  0.22552034  0.88053241     0.20500
C1003       C  0.65794547  0.22286728  0.87502816     0.18700
C1004       C  0.64124260  0.23338831  0.85996511    -0.17900
C1005       C  0.65294507  0.25614257  0.83493232    -0.20100
C1006       C  0.68161865  0.26889256  0.82453572     0.20200
C1007       C  0.69310836  0.29077162  0.79792495    -0.33100
C1008       C  0.72176249  0.30331461  0.78692775     0.00900
C1009       C  0.73910015  0.29412062  0.80397276    -0.24500
C1010       C  0.69146293  0.20130295  0.90355825    -0.29000
C1011       C  0.66215615  0.18724888  0.91180039     0.06500
C1012       C  0.64584014  0.19884879  0.89822001    -0.27700
H1013       H  0.74624136  0.23126898  0.88231069     0.11200
H1014       H  0.76690863  0.27150989  0.83904867     0.12400
H1015       H  0.61892951  0.22364102  0.86697557     0.11400
H1016       H  0.63942506  0.26348069  0.82322969     0.10700
H1017       H  0.67959498  0.29783326  0.78542651     0.16100
H1018       H  0.76119419  0.30359677  0.79586154     0.12000
H1019       H  0.70442954  0.19286859  0.91394889     0.14800
H1020       H  0.62333628  0.18849340  0.90431887     0.14600
C1021       C  0.87819324  0.39542387  0.83574966    -0.18300
C1022       C  0.90062659  0.40608959  0.86117541    -0.20400
C1023       C  0.91207695  0.43373587  0.87513982     0.20200
C1024       C  0.90029357  0.45052325  0.86414226    -0.03300
C1025       C  0.87756372  0.43971641  0.83854477    -0.06400
C1026       C  0.86677384  0.41217926  0.82392419     0.20500
C1027       C  0.86608831  0.45666907  0.82697008     0.18700
C1028       C  0.87718258  0.48411426  0.84153118    -0.17900
C1029       C  0.89979986  0.49487055  0.86675186    -0.20100
C1030       C  0.91169419  0.47836245  0.87792135     0.20200
C1031       C  0.93538246  0.48953893  0.90157770    -0.33100
C1032       C  0.94811024  0.47338691  0.91139491     0.00900
C1033       C  0.93572141  0.44517027  0.89884767    -0.24500
C1034       C  0.84512127  0.40205262  0.79723338    -0.29000
C1035       C  0.83385020  0.41893920  0.78505174     0.06500
C1036       C  0.84412725  0.44608372  0.80053139    -0.27700
H1037       H  0.87002309  0.37416696  0.82493152     0.11200
H1038       H  0.90935688  0.39288686  0.86940647     0.12400
H1039       H  0.86862948  0.49741675  0.83301254     0.11400
H1040       H  0.90827150  0.51628849  0.87710641     0.10700
H1041       H  0.94452427  0.51123563  0.91114727     0.16100
H1042       H  0.94513834  0.43240432  0.90622543     0.12000
H1043       H  0.83713645  0.38100280  0.78573290     0.14800
H1044       H  0.83560257  0.45925412  0.79124981     0.14600
C1045       C  0.74059892  0.48397664  0.83488754    -0.18300
C1046       C  0.72950187  0.49525637  0.86053009    -0.20400
C1047       C  0.70250185  0.47812189  0.87615038     0.20200
C1048       C  0.68692331  0.44912804  0.86676385    -0.03300
C1049       C  0.69822728  0.43767876  0.84106936    -0.06400
C1050       C  0.72497123  0.45533302  0.82456519     0.20500
C1051       C  0.68244717  0.40877913  0.83117133     0.18700
C1052       C  0.65577742  0.39148871  0.84754616    -0.17900
C1053       C  0.64447114  0.40289134  0.87271988    -0.20100
C1054       C  0.65969571  0.43176165  0.88214077     0.20200
C1055       C  0.64775593  0.44377383  0.90553119    -0.33100
C1056       C  0.66262488  0.47300661  0.91370351     0.00900
C1057       C  0.69041934  0.48977015  0.89981463    -0.24500
C1058       C  0.73532362  0.44419251  0.79746207    -0.29000
C1059       C  0.71944242  0.41553107  0.78683197     0.06500
C1060       C  0.69327734  0.39783287  0.80443413    -0.27700
H1061       H  0.76125089  0.99778999  0.82268511     0.13600
H1062       H  0.74178624  0.01754116  0.86753304     0.12400
H1063       H  0.64341440  0.36923633  0.84035146     0.11400
H1064       H  0.62358506  0.38920232  0.88435604     0.10700
H1065       H  0.62644950  0.43050889  0.91620917     0.16100
H1066       H  0.70223391  0.01224549  0.90589348     0.12000
H1067       H  0.75565871  0.45792607  0.78437575     0.14800
H1068       H  0.68089871  0.37572823  0.79647467     0.14600
C1069       C  0.73262859  0.49304744  0.53721147    -0.18300
C1070       C  0.74443116  0.48158877  0.56144275    -0.20400
C1071       C  0.72738036  0.45486399  0.57775044     0.20200
C1072       C  0.69832783  0.43913129  0.56847978    -0.03300
C1073       C  0.68647070  0.45057836  0.54365555    -0.06400
C1074       C  0.70359405  0.47791314  0.52857086     0.20500
C1075       C  0.65732044  0.43506105  0.53494186     0.18700
C1076       C  0.64045151  0.40793763  0.55026345    -0.17900
C1077       C  0.65212055  0.39672612  0.57508684    -0.20100
C1078       C  0.68090979  0.41234226  0.58488955     0.20200
C1079       C  0.69238935  0.40199810  0.61153727    -0.33100
C1080       C  0.72118193  0.41790002  0.62181628     0.00900
C1081       C  0.73868578  0.44401451  0.60398009    -0.24500
C1082       C  0.69122784  0.49000556  0.50617273    -0.29000
C1083       C  0.66189202  0.47514359  0.49851405     0.06500
C1084       C  0.64530285  0.44729099  0.51220195    -0.27700
H1085       H  0.74615081  0.51399908  0.52572441     0.11200
H1086       H  0.76679857  0.49392511  0.56808295     0.12400
H1087       H  0.61806435  0.39565220  0.54372870     0.11400
H1088       H  0.63847196  0.37600820  0.58715160     0.10700
H1089       H  0.67877686  0.38167936  0.62466226     0.16100
H1090       H  0.76088821  0.45640254  0.61151446     0.12000
H1091       H  0.70436413  0.51135310  0.49564271     0.14800
H1092       H  0.62274103  0.43549614  0.50655604     0.14600
C1093       C  0.88053273  0.48413769  0.57476074    -0.18300
C1094       C  0.90300879  0.49603419  0.54929332    -0.20400
C1095       C  0.91325818  0.47941647  0.53313808     0.20200
C1096       C  0.90018630  0.45032104  0.54197329    -0.03300
C1097       C  0.87731287  0.43823575  0.56755493    -0.06400
C1098       C  0.86777627  0.45537482  0.58438670     0.20500
C1099       C  0.86449177  0.40923703  0.57697236     0.18700
C1100       C  0.87443505  0.39252722  0.56023472    -0.17900
C1101       C  0.89724194  0.40455131  0.53512772    -0.20100
C1102       C  0.91048451  0.43349874  0.52612728     0.20200
C1103       C  0.93445004  0.44611742  0.50269099    -0.33100
C1104       C  0.94845265  0.47544973  0.49500728     0.00900
C1105       C  0.93702761  0.49168425  0.50948078    -0.24500
C1106       C  0.84605867  0.44365959  0.61111149    -0.29000
C1107       C  0.83343247  0.41490847  0.62130798     0.06500
C1108       C  0.84244142  0.39767301  0.60353395    -0.27700
H1109       H  0.87336995  0.49756369  0.58733304     0.11200
H1110       H  0.91275240  0.51838984  0.54279957     0.12400
H1111       H  0.86487369  0.37023023  0.56702908     0.11400
H1112       H  0.90481210  0.39127394  0.52317974     0.10700
H1113       H  0.94279348  0.43323710  0.49161005     0.16100
H1114       H  0.94738536  0.51421380  0.50381279     0.12000
H1115       H  0.83915138  0.45710357  0.62429054     0.14800
H1116       H  0.83290013  0.37551380  0.61113980     0.14600
C1117       C  0.94230043  0.33497632  0.33348308    -0.18300
C1118       C  0.95334810  0.35803742  0.35795650    -0.20400
C1119       C  0.98021161  0.36817770  0.37400900     0.20200
C1120       C  0.99570321  0.35433577  0.36625277    -0.03300
C1121       C  0.98448940  0.33094233  0.34154099    -0.06400
C1122       C  0.95790121  0.32160344  0.32461932     0.20500
C1123       C  0.00024789  0.31749601  0.33289935     0.18700
C1124       C  0.52671349  0.32709543  0.34997323    -0.17900
C1125       C  0.53786965  0.35033788  0.37432857    -0.20100
C1126       C  0.52275331  0.36442798  0.38217636     0.20200
C1127       C  0.53462341  0.38899119  0.40451407    -0.33100
C1128       C  0.51983216  0.40373470  0.41106256     0.00900
C1129       C  0.99222244  0.39252680  0.39652932    -0.24500
C1130       C  0.94769650  0.29964420  0.29828142    -0.29000
C1131       C  0.96365105  0.28673919  0.28831255     0.06500
C1132       C  0.98963558  0.29532169  0.30655187    -0.27700
H1133       H  0.92176524  0.32795058  0.32090169     0.11200
H1134       H  0.94110415  0.36833356  0.36370964     0.12400
H1135       H  0.53908925  0.31698421  0.34389838     0.11400
H1136       H  0.55859347  0.35764508  0.38645523     0.10700
H1137       H  0.55576656  0.39712988  0.41570743     0.16100
H1138       H  0.98043083  0.40342806  0.40133342     0.12000
H1139       H  0.92747587  0.29297761  0.28493286     0.14800
H1140       H  0.00206162  0.28546348  0.29931168     0.14600
C1141       C  0.53005401  0.19500636  0.33161606    -0.18300
C1142       C  0.54183336  0.18451560  0.35728410    -0.20400
C1143       C  0.52509880  0.15769208  0.37345041     0.20200
C1144       C  0.99603148  0.14161856  0.36442219    -0.03300
C1145       C  0.98410356  0.15226106  0.33860785    -0.06400
C1146       C  0.50133067  0.17890359  0.32177048     0.20500
C1147       C  0.95513399  0.13598287  0.32904889     0.18700
C1148       C  0.93828103  0.10942434  0.34581940    -0.17900
C1149       C  0.95014190  0.09880890  0.37122596    -0.20100
C1150       C  0.97904762  0.11458908  0.38038234     0.20200
C1151       C  0.99145450  0.10339267  0.40416661    -0.33100
C1152       C  0.52072247  0.11874117  0.41205846     0.00900
C1153       C  0.53718313  0.14628029  0.39740436    -0.24500
C1154       C  0.98967067  0.18878159  0.29494404    -0.29000
C1155       C  0.96091583  0.17253757  0.28483329     0.06500
C1156       C  0.94366607  0.14631545  0.30243145    -0.27700
H1157       H  0.54352519  0.21558691  0.31908373     0.11200
H1158       H  0.56416249  0.19716903  0.36397899     0.12400
H1159       H  0.91600145  0.09666962  0.33888027     0.11400
H1160       H  0.93677669  0.07803766  0.38329702     0.10700
H1161       H  0.97844668  0.08226117  0.41542654     0.16100
H1162       H  0.55970709  0.15841063  0.40321741     0.12000
H1163       H  0.50307666  0.20913817  0.28178342     0.14800
H1164       H  0.92151052  0.13364492  0.29476919     0.14600
C1165       C  0.64537782  0.24353037  0.53396412    -0.18300
C1166       C  0.65625393  0.26599296  0.55944849    -0.20400
C1167       C  0.68291178  0.27557961  0.57586492     0.20200
C1168       C  0.69918783  0.26304264  0.56549537    -0.03300
C1169       C  0.68830872  0.24053203  0.53952267    -0.06400
C1170       C  0.66101433  0.23032453  0.52430955     0.20500
C1171       C  0.70427588  0.22752135  0.52996049     0.18700
C1172       C  0.73134380  0.23772506  0.54543464    -0.17900
C1173       C  0.74203088  0.25987276  0.57132421    -0.20100
C1174       C  0.72591204  0.27230639  0.58202202     0.20200
C1175       C  0.73570624  0.29325965  0.60969504    -0.33100
C1176       C  0.71925739  0.30528183  0.62101298     0.00900
C1177       C  0.69319098  0.29684825  0.60325430    -0.24500
C1178       C  0.64928868  0.20626850  0.50118790    -0.29000
C1179       C  0.66437255  0.19204611  0.49333022     0.06500
C1180       C  0.69238086  0.20365361  0.50660421    -0.27700
H1181       H  0.62443566  0.23606230  0.52244091     0.11200
H1182       H  0.64351196  0.27543469  0.56696844     0.12400
H1183       H  0.74394143  0.22806090  0.53828378     0.11400
H1184       H  0.76268748  0.26689148  0.58355159     0.10700
H1185       H  0.75602158  0.29994318  0.62280781     0.16100
H1186       H  0.68044020  0.30609845  0.61166234     0.12000
H1187       H  0.62786772  0.19785503  0.49084148     0.14800
H1188       H  0.70442817  0.19319546  0.50060155     0.14600
C1189       C  0.77851364  0.09537069  0.36022242    -0.18300
C1190       C  0.80079697  0.10663019  0.33441366    -0.20400
C1191       C  0.81364290  0.13520921  0.32380994     0.20200
C1192       C  0.80429048  0.15276522  0.33990193    -0.03300
C1193       C  0.78164179  0.14133876  0.36574901    -0.06400
C1194       C  0.76854205  0.11245853  0.37567565     0.20500
C1195       C  0.77169559  0.15867017  0.38094856     0.18700
C1196       C  0.78497725  0.18740972  0.37098018    -0.17900
C1197       C  0.80755801  0.19878464  0.34562192    -0.20100
C1198       C  0.81721170  0.18159642  0.32969034     0.20200
C1199       C  0.83929073  0.19266277  0.30338667    -0.33100
C1200       C  0.84833754  0.17516701  0.28663361     0.00900
C1201       C  0.83544193  0.14646869  0.29712806    -0.24500
C1202       C  0.74505967  0.10089395  0.39979782    -0.29000
C1203       C  0.73402087  0.11766244  0.41361130     0.06500
C1204       C  0.74805427  0.14676467  0.40481761    -0.27700
H1205       H  0.76874510  0.07317131  0.36759719     0.11200
H1206       H  0.80781811  0.09288437  0.32247759     0.12400
H1207       H  0.77765576  0.20104322  0.38244426     0.11400
H1208       H  0.81725408  0.22096145  0.33812895     0.10700
H1209       H  0.84896622  0.21473500  0.29530034     0.16100
H1210       H  0.84237199  0.13285540  0.28449217     0.12000
H1211       H  0.73463004  0.07850629  0.40637017     0.14800
H1212       H  0.73998921  0.16002230  0.41542440     0.14600
C1213       C  0.70629989  0.60419976  0.43358075     0.79800
N1214       N  0.69294239  0.61928445  0.44038731    -0.78500
C1215       C  0.66587341  0.60612449  0.45347237     0.82200
N1216       N  0.65203722  0.57771673  0.45947514    -0.78500
C1217       C  0.66537174  0.56258393  0.45406206     0.82300
N1218       N  0.69242728  0.57585741  0.44096690    -0.80200
C1219       C  0.64991888  0.66347232  0.47550913     0.79800
N1220       N  0.66447509  0.64944400  0.46957167    -0.78500
C1221       C  0.65064264  0.62183937  0.45877308     0.82200
N1222       N  0.62212818  0.60816730  0.45406430    -0.78500
C1223       C  0.60741504  0.62199062  0.45862437     0.82300
N1224       N  0.62132949  0.64964412  0.46943936    -0.80200
C1225       C  0.53458099  0.60495616  0.43201654     0.79800
N1226       N  0.56291601  0.61982861  0.43951845    -0.78500
C1227       C  0.57648403  0.60641306  0.45273095     0.82200
N1228       N  0.56165840  0.57789596  0.45801493    -0.78500
C1229       C  0.53325158  0.56293632  0.45183889     0.82300
N1230       N  0.51982882  0.57652550  0.43875399    -0.80200
C1231       C  0.53392790  0.93200993  0.42988259     0.79800
N1232       N  0.51915549  0.94579545  0.43624200    -0.78500
C1233       C  0.53261340  0.97296147  0.44887968     0.82200
N1234       N  0.56096132  0.98643233  0.45500712    -0.78500
C1235       C  0.57583823  0.97280502  0.45009880     0.82300
N1236       N  0.56231152  0.94559746  0.43744040    -0.80200
C1237       C  0.97648505  0.98964768  0.47555431     0.79800
N1238       N  0.99042596  0.51822712  0.46963642    -0.78500
C1239       C  0.51767236  0.53193730  0.45708346     0.82200
N1240       N  0.53106067  0.51698960  0.45061819    -0.78500
C1241       C  0.51719043  0.98842061  0.45508040     0.82300
N1242       N  0.98997276  0.97483463  0.46769117    -0.80200
C1243       C  0.64816305  0.98943320  0.47922180     0.79800
N1244       N  0.66300220  0.51796802  0.47311810    -0.78500
C1245       C  0.64971370  0.53168847  0.45990054     0.82200
N1246       N  0.62146012  0.51679941  0.45283661    -0.78500
C1247       C  0.60658439  0.98824670  0.45744806     0.82300
N1248       N  0.61994792  0.97465569  0.47083596    -0.80200
O1249       O  0.80967060  0.88874086  0.73410392    -0.85800
O1250       O  0.75939779  0.84089804  0.75218780    -0.82800
C1251       C  0.73300863  0.82517343  0.75680255     0.97700
O1252       O  0.71586595  0.82733879  0.73505910    -0.82900
O1253       O  0.71914306  0.87798379  0.75257199    -0.85500
C1254       C  0.72972705  0.90435783  0.75658675     1.02200
O1255       O  0.74846609  0.92139238  0.73410091    -0.78300
O1256       O  0.79657444  0.91926614  0.75078047    -0.78400
C1257       C  0.81205735  0.90836485  0.75535989     1.02200
O1258       O  0.79609775  0.87727652  0.65622887    -0.85800
O1259       O  0.74790935  0.82742138  0.67405436    -0.82800
C1260       C  0.72907885  0.82596913  0.65203561     0.97700
O1261       O  0.71823187  0.84144719  0.65699811    -0.82900
O1262       O  0.71568056  0.88902990  0.67467751    -0.85500
C1263       C  0.73259300  0.90767131  0.65200345     1.02200
O1264       O  0.75900579  0.91812584  0.65579560    -0.78300
O1265       O  0.80954016  0.92087346  0.67294023    -0.78400
C1266       C  0.81170847  0.90362452  0.65144120     1.02100
Cr1267     Cr  0.77671353  0.86014317  0.70417540     1.93700
Cr1268     Cr  0.72030956  0.86045693  0.70480802     1.93200
Cr1269     Cr  0.77682960  0.91681765  0.70343792     1.39100
O1270       O  0.75800202  0.87914974  0.70419738    -1.23500
C1271       C  0.53264736  0.60134470  0.97733955     0.79800
N1272       N  0.56105304  0.61634046  0.96993761    -0.78500
C1273       C  0.57486338  0.60295327  0.95723059     0.82200
N1274       N  0.56023695  0.57445279  0.95215473    -0.78500
C1275       C  0.53184810  0.55937273  0.95813283     0.82300
N1276       N  0.51812421  0.57284830  0.97081250    -0.80200
C1277       C  0.97581575  0.98683583  0.93123512     0.79800
N1278       N  0.98923905  0.97181969  0.93805707    -0.78500
C1279       C  0.51624321  0.98503422  0.95127317     0.82200
N1280       N  0.52995431  0.51346280  0.95731251    -0.78500
C1281       C  0.51651136  0.52850469  0.95189035     0.82300
N1282       N  0.98952058  0.51513903  0.93875741    -0.80200
C1283       C  0.53246824  0.92822844  0.97612837     0.79800
N1284       N  0.51773356  0.94196627  0.96924814    -0.78500
C1285       C  0.53146525  0.96931327  0.95710799     0.82200
N1286       N  0.55997639  0.98292546  0.95204496    -0.78500
C1287       C  0.57480075  0.96931666  0.95753677     0.82300
N1288       N  0.56102366  0.94202792  0.96970508    -0.80200
C1289       C  0.64824907  0.98663429  0.93306976     0.79800
N1290       N  0.66277190  0.51504588  0.94017697    -0.78500
C1291       C  0.64898838  0.52847417  0.95270393     0.82200
N1292       N  0.62046318  0.51340203  0.95781928    -0.78500
C1293       C  0.60581289  0.98494573  0.95214260     0.82300
N1294       N  0.61974264  0.97163085  0.93966120    -0.80200
C1295       C  0.70460087  0.60150648  0.97965685     0.79800
N1296       N  0.69103171  0.61618605  0.97170702    -0.78500
C1297       C  0.66425069  0.60271100  0.95787606     0.82200
N1298       N  0.65079293  0.57425858  0.95231602    -0.78500
C1299       C  0.66429368  0.55940864  0.95885032     0.82300
N1300       N  0.69120429  0.57307943  0.97260275    -0.80200
C1301       C  0.64800939  0.65916868  0.93121673     0.79800
N1302       N  0.61951367  0.64558217  0.93819618    -0.78500
C1303       C  0.60578170  0.61846570  0.95109628     0.82200
N1304       N  0.62055284  0.60482464  0.95674967    -0.78500
C1305       C  0.64898271  0.61825125  0.95118598     0.82300
N1306       N  0.66268720  0.64541453  0.93837010    -0.80200
O1307       O  0.92176699  0.74979565  0.15817194    -0.85800
O1308       O  0.87186333  0.70206079  0.17646939    -0.82800
C1309       C  0.87013634  0.68358147  0.15356330     0.97700
O1310       O  0.88626422  0.67328264  0.15678627    -0.82900
O1311       O  0.93391888  0.67023677  0.17361666    -0.85500
C1312       C  0.95279703  0.68735770  0.15141454     1.02200
O1313       O  0.96331395  0.71373433  0.15576904    -0.78300
O1314       O  0.96551728  0.76375512  0.17482876    -0.78400
C1315       C  0.94807994  0.76530359  0.15302868     1.02200
O1316       O  0.93417066  0.76346589  0.23613051    -0.85800
O1317       O  0.88670103  0.71293358  0.25398149    -0.82800
C1318       C  0.87050729  0.68655400  0.25731935     0.97700
O1319       O  0.87237247  0.66966664  0.23479281    -0.82900
O1320       O  0.92291554  0.67217281  0.25148295    -0.85500
C1321       C  0.94936167  0.68284823  0.25528298     1.02200
O1322       O  0.96635023  0.70202514  0.23329668    -0.78300
O1323       O  0.96419738  0.74979394  0.25260260    -0.78400
C1324       C  0.95340087  0.76534143  0.25776370     1.02100
Cr1325     Cr  0.90519828  0.73061293  0.20613054     1.93700
Cr1326     Cr  0.90536517  0.67435427  0.20422958     1.93200
Cr1327     Cr  0.96182116  0.73083334  0.20418429     1.39100
O1328       O  0.92415864  0.71194323  0.20492827    -1.23500
C1329       C  0.77469485  0.68116965  0.05656345    -0.18300
C1330       C  0.79744987  0.69239708  0.08155501    -0.20400
C1331       C  0.81198053  0.67776987  0.08934385     0.20200
C1332       C  0.80392236  0.65188456  0.07107909    -0.03300
C1333       C  0.78074297  0.64039953  0.04610165    -0.06400
C1334       C  0.76593671  0.65500692  0.03909599     0.20500
C1335       C  0.77191607  0.61394353  0.02898854     0.18700
C1336       C  0.78697419  0.59972113  0.03601907    -0.17900
C1337       C  0.81012763  0.61124542  0.06041733    -0.20100
C1338       C  0.81852936  0.63711019  0.07848202     0.20200
C1339       C  0.84077401  0.64805176  0.10450398    -0.33100
C1340       C  0.84824686  0.67330598  0.12387759     0.00900
C1341       C  0.83397074  0.68823084  0.11567494    -0.24500
C1342       C  0.74206695  0.64281650  0.01574771    -0.29000
C1343       C  0.73223653  0.61580766  0.99983644     0.06500
C1344       C  0.74771625  0.60179625  0.00607831    -0.27700
H1345       H  0.76359132  0.69269401  0.05144817     0.11200
H1346       H  0.80344075  0.71237166  0.09518557     0.12400
H1347       H  0.78059742  0.57945055  0.02302902     0.11400
H1348       H  0.82114012  0.59964910  0.06569380     0.10700
H1349       H  0.85164424  0.63641430  0.11053504     0.16100
H1350       H  0.83974391  0.70786914  0.13012385     0.12000
H1351       H  0.73046177  0.65392913  0.01131932     0.14800
H1352       H  0.74055462  0.58110374  0.99388604     0.14600
C1353       C  0.52811953  0.83331348  0.07549193    -0.18300
C1354       C  0.53983391  0.85569796  0.04999186    -0.20400
C1355       C  0.52285414  0.86527817  0.03329236     0.20200
C1356       C  0.99357332  0.85150949  0.04136748    -0.03300
C1357       C  0.98169212  0.82877479  0.06703929    -0.06400
C1358       C  0.49921917  0.82006715  0.08465802     0.20500
C1359       C  0.95254526  0.81542841  0.07598859     0.18700
C1360       C  0.93540735  0.82442478  0.05831857    -0.17900
C1361       C  0.94722633  0.84708678  0.03306233    -0.20100
C1362       C  0.97638604  0.86111550  0.02488490     0.20200
C1363       C  0.98886788  0.88525966  0.00180052    -0.33100
C1364       C  0.51837998  0.90002387  0.99505972     0.00900
C1365       C  0.53495297  0.88914305  0.00994851    -0.24500
C1366       C  0.98778872  0.79886796  0.11194623    -0.29000
C1367       C  0.95900842  0.78611288  0.12207459     0.06500
C1368       C  0.94130181  0.79397765  0.10323773    -0.27700
H1369       H  0.54181702  0.82673877  0.08862759     0.11200
H1370       H  0.56233326  0.86596792  0.04400855     0.12400
H1371       H  0.91296627  0.81435430  0.06466155     0.11400
H1372       H  0.93364134  0.85403333  0.02051876     0.10700
H1373       H  0.97574086  0.89315500  0.99029758     0.16100
H1374       H  0.55762245  0.90006207  0.00498394     0.12000
H1375       H  0.50151530  0.79263877  0.12580988     0.14800
H1376       H  0.91904773  0.78412988  0.11064575     0.14600
C1377       C  0.94156015  0.60622029  0.07632848    -0.18300
C1378       C  0.95238450  0.59425813  0.05130767    -0.20400
C1379       C  0.97914052  0.61099395  0.03483135     0.20200
C1380       C  0.99477033  0.64024068  0.04289981    -0.03300
C1381       C  0.98377376  0.65236558  0.06809441    -0.06400
C1382       C  0.95723226  0.63515144  0.08525887     0.20500
C1383       C  0.49964078  0.68151832  0.07679741     0.18700
C1384       C  0.52611716  0.69834467  0.05967370    -0.17900
C1385       C  0.53706004  0.68631484  0.03487741    -0.20100
C1386       C  0.52173194  0.65722552  0.02665440     0.20200
C1387       C  0.53333063  0.64467929  0.00357457    -0.33100
C1388       C  0.51845570  0.61525073  0.99664766     0.00900
C1389       C  0.99092854  0.59876701  0.01155894    -0.24500
C1390       C  0.94710025  0.64699179  0.11166027    -0.29000
C1391       C  0.96302562  0.67590932  0.12124372     0.06500
C1392       C  0.98907425  0.69316486  0.10307116    -0.27700
H1393       H  0.92106760  0.59271721  0.08913619     0.11200
H1394       H  0.94004794  0.57178645  0.04538791     0.12400
H1395       H  0.53859376  0.72075971  0.06591293     0.11400
H1396       H  0.55776699  0.69971347  0.02258649     0.10700
H1397       H  0.55441459  0.65773933  0.99212147     0.16100
H1398       H  0.97909935  0.57614046  0.00648898     0.12000
H1399       H  0.92687992  0.63351743  0.12516459     0.14800
H1400       H  0.50152988  0.71543073  0.11020839     0.14600
C1401       C  0.73283731  0.73889679  0.87104664    -0.18300
C1402       C  0.74464080  0.76189536  0.84627133    -0.20400
C1403       C  0.72777983  0.77195828  0.83035967     0.20200
C1404       C  0.69886532  0.75912446  0.84040708    -0.03300
C1405       C  0.68698113  0.73599833  0.86562647    -0.06400
C1406       C  0.70392128  0.72552059  0.88053228     0.20500
C1407       C  0.65794698  0.72286856  0.87503037     0.18700
C1408       C  0.64124422  0.73339012  0.85996843    -0.17900
C1409       C  0.65294649  0.75614424  0.83493545    -0.20100
C1410       C  0.68161977  0.76889361  0.82453751     0.20200
C1411       C  0.69310913  0.79077231  0.79792625    -0.33100
C1412       C  0.72176293  0.80331472  0.78692773     0.00900
C1413       C  0.73910069  0.79412057  0.80397206    -0.24500
C1414       C  0.69146421  0.70130324  0.90355821    -0.29000
C1415       C  0.66215760  0.68724968  0.91180156     0.06500
C1416       C  0.64584174  0.69885008  0.89822227    -0.27700
H1417       H  0.74624225  0.73126841  0.88230869     0.11200
H1418       H  0.76690921  0.77150915  0.83904630     0.12400
H1419       H  0.61893133  0.72364327  0.86697986     0.11400
H1420       H  0.63942652  0.76348270  0.82323359     0.10700
H1421       H  0.67959571  0.79783417  0.78542840     0.16100
H1422       H  0.76119454  0.80359637  0.79585991     0.12000
H1423       H  0.70443074  0.69286856  0.91394799     0.14800
H1424       H  0.62333802  0.68849506  0.90432205     0.14600
C1425       C  0.87819189  0.89542457  0.83574744    -0.18300
C1426       C  0.90062470  0.90608988  0.86117396    -0.20400
C1427       C  0.91207451  0.93373575  0.87513946     0.20200
C1428       C  0.90029103  0.95052316  0.86414236    -0.03300
C1429       C  0.87756161  0.93971670  0.83854420    -0.06400
C1430       C  0.86677235  0.91217997  0.82392250     0.20500
C1431       C  0.86608605  0.95666932  0.82696997     0.18700
C1432       C  0.87717978  0.98411412  0.84153222    -0.17900
C1433       C  0.89979667  0.99487005  0.86675354    -0.20100
C1434       C  0.91169117  0.97836198  0.87792251     0.20200
C1435       C  0.93537925  0.98953821  0.90157924    -0.33100
C1436       C  0.94810727  0.97338624  0.91139572     0.00900
C1437       C  0.93571869  0.94516985  0.89884771    -0.24500
C1438       C  0.84512013  0.90205365  0.79723127    -0.29000
C1439       C  0.83384871  0.91894008  0.78505027     0.06500
C1440       C  0.84412531  0.94608429  0.80053073    -0.27700
H1441       H  0.87002224  0.87416801  0.82492839     0.11200
H1442       H  0.90935510  0.89288717  0.86940471     0.12400
H1443       H  0.86862656  0.99741659  0.83301398     0.11400
H1444       H  0.90826791  0.01628772  0.87710892     0.10700
H1445       H  0.94452079  0.01123468  0.91114953     0.16100
H1446       H  0.94513579  0.93240394  0.90622494     0.12000
H1447       H  0.83713577  0.88100410  0.78573011     0.14800
H1448       H  0.83560042  0.95925461  0.79124956     0.14600
C1449       C  0.74059490  0.98397549  0.83488440    -0.18300
C1450       C  0.72949806  0.99525531  0.86052711    -0.20400
C1451       C  0.70249859  0.97812061  0.87614877     0.20200
C1452       C  0.68692046  0.94912651  0.86676345    -0.03300
C1453       C  0.69822425  0.93767716  0.84106873    -0.06400
C1454       C  0.72496760  0.95533160  0.82456324     0.20500
C1455       C  0.68244452  0.90877726  0.83117178     0.18700
C1456       C  0.65577535  0.89148670  0.84754802    -0.17900
C1457       C  0.64446920  0.90288939  0.87272194    -0.20100
C1458       C  0.65969338  0.93175996  0.88214170     0.20200
C1459       C  0.64775363  0.94377223  0.90553211    -0.33100
C1460       C  0.66262218  0.97300522  0.91370325     0.00900
C1461       C  0.69041622  0.98976893  0.89981313    -0.24500
C1462       C  0.73531990  0.94419098  0.79746013    -0.29000
C1463       C  0.71943914  0.91552925  0.78683104     0.06500
C1464       C  0.69327452  0.89783093  0.80443429    -0.27700
H1465       H  0.76125531  0.49779099  0.82268924     0.13600
H1466       H  0.74179036  0.51754207  0.86753695     0.12400
H1467       H  0.64341258  0.86923409  0.84035422     0.11400
H1468       H  0.62358355  0.88920028  0.88435905     0.10700
H1469       H  0.62644752  0.93050717  0.91621102     0.16100
H1470       H  0.70223734  0.51224656  0.90589596     0.12000
H1471       H  0.75565460  0.95792472  0.78437304     0.14800
H1472       H  0.68089614  0.87572609  0.79647561     0.14600
C1473       C  0.73262547  0.99304627  0.53721082    -0.18300
C1474       C  0.74442791  0.98158720  0.56144168    -0.20400
C1475       C  0.72737673  0.95486284  0.57775029     0.20200
C1476       C  0.69832393  0.93913091  0.56848094    -0.03300
C1477       C  0.68646691  0.95057834  0.54365704    -0.06400
C1478       C  0.70359071  0.97791275  0.52857142     0.20500
C1479       C  0.65731643  0.93506179  0.53494451     0.18700
C1480       C  0.64044707  0.90793874  0.55026705    -0.17900
C1481       C  0.65211602  0.89672690  0.57509010    -0.20100
C1482       C  0.68090556  0.91234226  0.58489152     0.20200
C1483       C  0.69238524  0.90199768  0.61153860    -0.33100
C1484       C  0.72117821  0.91789880  0.62181623     0.00900
C1485       C  0.73868219  0.94401304  0.60397944    -0.24500
C1486       C  0.69122480  0.99000551  0.50617334    -0.29000
C1487       C  0.66188886  0.97514428  0.49851558     0.06500
C1488       C  0.64529912  0.94729206  0.51220467    -0.27700
H1489       H  0.74614804  0.01399759  0.52572307     0.11200
H1490       H  0.76679554  0.99392291  0.56808079     0.12400
H1491       H  0.61805974  0.89565387  0.54373322     0.11400
H1492       H  0.63846711  0.87600926  0.58715552     0.10700
H1493       H  0.67877252  0.88167922  0.62466413     0.16100
H1494       H  0.76088485  0.95640057  0.61151276     0.12000
H1495       H  0.70436149  0.01135273  0.49564240     0.14800
H1496       H  0.62273718  0.93549779  0.50655959     0.14600
C1497       C  0.88053068  0.98413892  0.57476071    -0.18300
C1498       C  0.90300689  0.99603565  0.54929354    -0.20400
C1499       C  0.91325603  0.97941789  0.53313766     0.20200
C1500       C  0.90018374  0.95032228  0.54197192    -0.03300
C1501       C  0.87731011  0.93823678  0.56755318    -0.06400
C1502       C  0.86777381  0.95537585  0.58438570     0.20500
C1503       C  0.86448859  0.90923786  0.57696962     0.18700
C1504       C  0.87443156  0.89252803  0.56023134    -0.17900
C1505       C  0.89723864  0.90455232  0.53512467    -0.20100
C1506       C  0.91048170  0.93349995  0.52612529     0.20200
C1507       C  0.93444740  0.94611877  0.50268940    -0.33100
C1508       C  0.94845039  0.97545120  0.49500663     0.00900
C1509       C  0.93702560  0.99168580  0.50948063    -0.24500
C1510       C  0.84605620  0.94366041  0.61111045    -0.29000
C1511       C  0.83342979  0.91490912  0.62130615     0.06500
C1512       C  0.84243828  0.89767366  0.60353114    -0.27700
H1513       H  0.87336813  0.99756494  0.58733363     0.11200
H1514       H  0.91275081  0.01839140  0.54280057     0.12400
H1515       H  0.86486988  0.87023091  0.56702505     0.11400
H1516       H  0.90480859  0.89127493  0.52317610     0.10700
H1517       H  0.94279065  0.93323839  0.49160792     0.16100
H1518       H  0.94738362  0.01421543  0.50381327     0.12000
H1519       H  0.83914922  0.95710440  0.62429021     0.14800
H1520       H  0.83289677  0.87551431  0.61113633     0.14600
C1521       C  0.94229965  0.83497709  0.33348319    -0.18300
C1522       C  0.95334683  0.85803822  0.35795655    -0.20400
C1523       C  0.98021005  0.86817854  0.37400993     0.20200
C1524       C  0.99570180  0.85433661  0.36625471    -0.03300
C1525       C  0.98448851  0.83094318  0.34154297    -0.06400
C1526       C  0.95790064  0.82160427  0.32462038     0.20500
C1527       C  0.00024719  0.81749690  0.33290232     0.18700
C1528       C  0.52671248  0.82709631  0.34997720    -0.17900
C1529       C  0.53786807  0.85033870  0.37433259    -0.20100
C1530       C  0.52275157  0.86442877  0.38217934     0.20200
C1531       C  0.53462121  0.88899199  0.40451695    -0.33100
C1532       C  0.51982985  0.90373554  0.41106422     0.00900
C1533       C  0.99222044  0.89252768  0.39653013    -0.24500
C1534       C  0.94769647  0.79964505  0.29828254    -0.29000
C1535       C  0.96365125  0.78674012  0.28831456     0.06500
C1536       C  0.98963545  0.79532263  0.30655478    -0.27700
H1537       H  0.92176468  0.82795132  0.32090108     0.11200
H1538       H  0.94110276  0.86833433  0.36370892     0.12400
H1539       H  0.53908840  0.81698515  0.34390311     0.11400
H1540       H  0.55859168  0.85764593  0.38646009     0.10700
H1541       H  0.55576413  0.89713070  0.41571107     0.16100
H1542       H  0.98042878  0.90342901  0.40133340     0.12000
H1543       H  0.92747604  0.79297844  0.28493330     0.14800
H1544       H  0.00206164  0.78546448  0.29931527     0.14600
C1545       C  0.53005714  0.69500540  0.33161347    -0.18300
C1546       C  0.54183651  0.68451416  0.35728075    -0.20400
C1547       C  0.52510159  0.65769097  0.37344778     0.20200
C1548       C  0.99603404  0.64161826  0.36442090    -0.03300
C1549       C  0.98410605  0.65226134  0.33860753    -0.06400
C1550       C  0.50133338  0.67890356  0.32176953     0.20500
C1551       C  0.95513607  0.63598404  0.32905022     0.18700
C1552       C  0.93828282  0.60942580  0.34582134    -0.17900
C1553       C  0.95014377  0.59880976  0.37122688    -0.20100
C1554       C  0.97904984  0.61458908  0.38038170     0.20200
C1555       C  0.99145662  0.60339212  0.40416528    -0.33100
C1556       C  0.52072477  0.61873995  0.41205610     0.00900
C1557       C  0.53718579  0.64627877  0.39740124    -0.24500
C1558       C  0.98967325  0.68878206  0.29494399    -0.29000
C1559       C  0.96091796  0.67253883  0.28483479     0.06500
C1560       C  0.94366800  0.64631712  0.30243373    -0.27700
H1561       H  0.54352862  0.71558567  0.31908050     0.11200
H1562       H  0.56416590  0.69716692  0.36397452     0.12400
H1563       H  0.91600293  0.59667179  0.33888348     0.11400
H1564       H  0.93677831  0.57803878  0.38329846     0.10700
H1565       H  0.97844853  0.58226090  0.41542580     0.16100
H1566       H  0.55970993  0.65840862  0.40321344     0.12000
H1567       H  0.50307944  0.70913829  0.28178272     0.14800
H1568       H  0.92151213  0.63364721  0.29477270     0.14600
C1569       C  0.64537681  0.74352744  0.53396595    -0.18300
C1570       C  0.65625264  0.76598973  0.55945069    -0.20400
C1571       C  0.68291141  0.77557784  0.57586508     0.20200
C1572       C  0.69918863  0.76304268  0.56549311    -0.03300
C1573       C  0.68830980  0.74053240  0.53951988    -0.06400
C1574       C  0.66101454  0.73032342  0.52430882     0.20500
C1575       C  0.70427812  0.72752347  0.52995514     0.18700
C1576       C  0.73134694  0.73772873  0.54542724    -0.17900
C1577       C  0.74203371  0.75987602  0.57131751    -0.20100
C1578       C  0.72591371  0.77230784  0.58201795     0.20200
C1579       C  0.73570758  0.79326061  0.60969175    -0.33100
C1580       C  0.71925761  0.80528108  0.62101183     0.00900
C1581       C  0.69319034  0.79684611  0.60325483    -0.24500
C1582       C  0.64928925  0.70626758  0.50118690    -0.29000
C1583       C  0.66437416  0.69204659  0.49332718     0.06500
C1584       C  0.69238336  0.70365579  0.50659863    -0.27700
H1585       H  0.62443387  0.73605812  0.52244452     0.11200
H1586       H  0.64350976  0.77543004  0.56697263     0.12400
H1587       H  0.74394549  0.72806599  0.53827432     0.11400
H1588       H  0.76269100  0.76689583  0.58354338     0.10700
H1589       H  0.75602356  0.79994524  0.62280333     0.16100
H1590       H  0.68043864  0.80609494  0.61166455     0.12000
H1591       H  0.62786764  0.69785290  0.49084234     0.14800
H1592       H  0.70443157  0.69319888  0.50059407     0.14600
C1593       C  0.77851427  0.59537021  0.36022245    -0.18300
C1594       C  0.80079717  0.60662984  0.33441305    -0.20400
C1595       C  0.81364334  0.63520905  0.32381019     0.20200
C1596       C  0.80429154  0.65276510  0.33990354    -0.03300
C1597       C  0.78164321  0.64133852  0.36575119    -0.06400
C1598       C  0.76854331  0.61245815  0.37567711     0.20500
C1599       C  0.77169758  0.65866999  0.38095212     0.18700
C1600       C  0.78497942  0.68740970  0.37098444    -0.17900
C1601       C  0.80755991  0.69878476  0.34562578    -0.20100
C1602       C  0.81721308  0.68159653  0.32969287     0.20200
C1603       C  0.83929195  0.69266308  0.30338892    -0.33100
C1604       C  0.84833829  0.67516730  0.28663472     0.00900
C1605       C  0.83544218  0.64646871  0.29712805    -0.24500
C1606       C  0.74506133  0.60089349  0.39979996    -0.29000
C1607       C  0.73402297  0.61766204  0.41361465     0.06500
C1608       C  0.74805658  0.64676440  0.40482170    -0.27700
H1609       H  0.76874557  0.57317075  0.36759660     0.11200
H1610       H  0.80781784  0.59288397  0.32247589     0.12400
H1611       H  0.77765829  0.70104321  0.38244944     0.11400
H1612       H  0.81725620  0.72096174  0.33813352     0.10700
H1613       H  0.84896778  0.71473550  0.29530342     0.16100
H1614       H  0.84237182  0.63285537  0.28449125     0.12000
H1615       H  0.73463157  0.57850574  0.40637168     0.14800
H1616       H  0.73999185  0.66002209  0.41542940     0.14600
loop_ 
_geom_bond_atom_site_label_1 
_geom_bond_atom_site_label_2 
_geom_bond_distance 
_geom_bond_site_symmetry_2 
_ccdc_geom_bond_type 
C1            N2   1.364       .  A
C1            N6   1.363       .  A
C1          C395   1.490       .  S
N2            C3   1.359       .  A
C3            N4   1.358       .  A
C3            C9   1.471       .  S
N4            C5   1.357       .  A
C5            N6   1.359       .  A
C5           C33   1.473       .  S
C7            N8   1.364       .  A
C7           N12   1.366       .  A
C7          C371   1.493       .  S
N8            C9   1.359       .  A
C9           N10   1.355       .  A
N10          C11   1.356       .  A
C11          N12   1.361       .  A
C11          C15   1.474       .  S
C13          N14   1.364       .  A
C13          N18   1.363       .  A
C13         C344   1.488       .  S
N14          C15   1.359       .  A
C15          N16   1.359       .  A
N16          C17   1.358       .  A
C17          N18   1.358       .  A
C17          C27   1.475       .  S
C19          N20   1.366       .  A
C19          N24   1.366       .  A
C19         C320   1.496       .  S
N20          C21   1.360       .  A
C21          N22   1.355       .  A
C21          C29   1.473       .  S
N22          C23   1.356       .  A
C23          N24   1.362       .  A
C23          C35   1.474       .  S
C25          N30   1.364       .  A
C25         N430   1.365       .  A
C25         C296   1.494       .  S
N26         C429   1.365   1_545  A
N26         C835   1.360       .  A
C27          N28   1.357       .  A
C27         N834   1.360   1_455  A
N28         C433   1.358   1_545  A
C29         N432   1.358       .  A
C29         N838   1.360   1_455  A
N30         C837   1.360       .  A
C31          N36   1.365       .  A
C31         N436   1.364       .  A
C31         C275   1.493       .  S
N32          C33   1.360       .  A
N32         C435   1.364   1_545  A
C33          N34   1.357       .  A
N34         C439   1.358   1_545  A
C35          N36   1.360       .  A
C35         N438   1.358       .  A
O37         Cr55   2.003       .  S
O37          C45   1.266       .  A
O38         Cr55   1.992       .  S
O38          C39   1.262       .  A
C39         C200   1.494       .  S
C39          O40   1.268       .  A
O40         Cr56   2.015       .  S
O41         Cr56   1.978       .  S
O41          C42   1.261       .  A
C42         C251   1.483       .  S
C42          O43   1.267       .  A
O43         Cr57   2.009       .  S
O44         Cr57   1.981       .  S
O44          C45   1.261       .  A
C45         C227   1.482       .  S
O46         Cr55   1.990       .  S
O46          C54   1.262       .  A
O47         Cr55   2.004       .  S
O47          C48   1.266       .  A
C48         C368   1.481       .  S
C48          O49   1.260       .  A
O49         Cr56   1.978       .  S
O50         Cr56   2.013       .  S
O50          C51   1.267       .  A
C51         C272   1.490       .  S
C51          O52   1.262       .  A
O52         Cr57   1.987       .  S
O53         Cr57   2.004       .  S
O53          C54   1.266       .  A
C54         C299   1.489       .  S
Cr55         O58   1.779       .  S
Cr56         O58   1.777       .  S
Cr57         O58   1.778       .  S
C59          N60   1.365       .  A
C59          N64   1.365       .  A
C59         C176   1.494       .  S
N60          C61   1.361       .  A
C61          N62   1.357       .  A
C61          C91   1.474       .  S
N62          C63   1.356       .  A
C63          N64   1.360       .  A
C63          C69   1.474       .  S
C65          N66   1.364       .  A
C65         N474   1.363       .  A
C65         C224   1.489       .  S
N66         C875   1.359       .  A
C67         N874   1.359   1_455  A
C67         N472   1.359       .  A
C67          C73   1.474       .  S
N68          C69   1.358       .  A
N68         C471   1.359   1_545  A
C69         N878   1.358   1_455  A
N70         C469   1.363   1_545  A
N70         C877   1.358       .  A
C71          N72   1.366       .  A
C71          N76   1.366       .  A
C71         C152   1.494       .  S
N72          C73   1.362       .  A
C73          N74   1.356       .  A
N74          C75   1.356       .  A
C75          N76   1.360       .  A
C75          C81   1.474       .  S
C77          N82   1.365       .  A
C77         N482   1.365       .  A
C77         C248   1.492       .  S
N78          C79   1.359       .  A
N78         C481   1.365   1_545  A
C79          N80   1.358       .  A
C79          C87   1.476       .  S
N80         C485   1.358   1_545  A
C81          N82   1.360       .  A
C81         N484   1.358       .  A
C83          N84   1.363       .  A
C83          N88   1.366       .  A
C83         C131   1.492       .  S
N84          C85   1.357       .  A
C85          N86   1.358       .  A
C85          C93   1.473       .  S
N86          C87   1.358       .  A
C87          N88   1.362       .  A
C89          N90   1.366       .  A
C89          N94   1.366       .  A
C89         C203   1.497       .  S
N90          C91   1.361       .  A
C91          N92   1.356       .  A
N92          C93   1.355       .  A
C93          N94   1.362       .  A
O95        Cr113   1.981       .  S
O95         C103   1.260       .  A
O96        Cr113   2.007       .  S
O96          C97   1.266       .  A
C97         C128   1.485       .  S
C97          O98   1.262       .  A
O98        Cr114   1.983       .  S
O99        Cr114   2.004       .  S
O99         C100   1.265       .  A
C100        C179   1.489       .  S
C100        O101   1.263       .  A
O101       Cr115   1.992       .  S
O102       Cr115   2.002       .  S
O102        C103   1.266       .  A
C103        C155   1.483       .  S
O104       Cr113   2.008       .  S
O104        C112   1.267       .  A
O105       Cr113   1.980       .  S
O105        C106   1.261       .  A
C106        C392   1.482       .  S
C106        O107   1.266       .  A
O107       Cr114   2.007       .  S
O108       Cr114   1.981       .  S
O108        C109   1.262       .  A
C109        C347   1.481       .  S
C109        O110   1.266       .  A
O110       Cr115   2.002       .  S
O111       Cr115   1.993       .  S
O111        C112   1.263       .  A
C112        C323   1.491       .  S
Cr113       O116   1.775       .  S
Cr114       O116   1.774       .  S
Cr115       O116   1.775       .  S
C117        C118   1.400       .  A
C117        C122   1.405       .  A
C117        H133   1.083       .  S
C118        C119   1.403       .  A
C118        H134   1.084       .  S
C119        C129   1.404       .  A
C119        C120   1.412       .  A
C120        C126   1.411       .  A
C120        C121   1.415       .  A
C121        C123   1.412       .  A
C121        C122   1.410       .  A
C122        C130   1.404       .  A
C123        C132   1.407       .  A
C123        C124   1.404       .  A
C124        C125   1.401       .  A
C124        H135   1.084       .  S
C125        C126   1.404       .  A
C125        H136   1.083       .  S
C126        C127   1.406       .  A
C127        C128   1.408       .  A
C127        H137   1.084       .  S
C128        C129   1.409       .  A
C129        H138   1.085       .  S
C130        C131   1.411   1_554  A
C130        H139   1.083       .  S
C131        C132   1.409   1_556  A
C132        H140   1.084   1_554  S
C141        C142   1.398       .  A
C141        C146   1.402   1_455  A
C141        H157   1.084       .  S
C142        C143   1.404       .  A
C142        H158   1.083       .  S
C143        C153   1.404       .  A
C143        C952   1.411   1_455  A
C144        C150   1.411       .  A
C144        C145   1.414       .  A
C144        C951   1.411       .  A
C145        C147   1.412       .  A
C145        C954   1.411       .  A
C146        C953   1.411       .  A
C146        C962   1.401       .  A
C147        C156   1.408       .  A
C147        C148   1.404       .  A
C148        C149   1.402       .  A
C148        H159   1.083       .  S
C149        C150   1.405       .  A
C149        H160   1.083       .  S
C150        C151   1.409       .  A
C151        C960   1.412   1_554  A
C151        H161   1.084   1_554  S
C152        C153   1.410   1_556  A
C152        C959   1.412   1_456  A
C153        H162   1.083       .  S
C154        C155   1.407       .  A
C154        C954   1.401       .  A
C154        H971   1.084       .  S
C155        C156   1.409       .  A
C156        H164   1.084       .  S
H163        C962   1.084   1_455  S
C165        C166   1.400       .  A
C165        C170   1.404       .  A
C165        H181   1.084       .  S
C166        C167   1.404       .  A
C166        H182   1.083       .  S
C167        C177   1.406       .  A
C167        C168   1.411       .  A
C168        C169   1.416       .  A
C168        C982   1.411       .  A
C169        C170   1.410       .  A
C169        C979   1.412       .  A
C170        C178   1.404       .  A
C171        C172   1.404   1_655  A
C171        C977   1.412       .  A
C171        C988   1.409       .  A
C172        C173   1.401       .  A
C172        H183   1.083       .  S
C173        C174   1.405       .  A
C173        H184   1.083       .  S
C174        C175   1.407       .  A
C174        C976   1.411   1_455  A
C175        C176   1.411   1_554  A
C175        H185   1.084   1_554  S
C176        C985   1.411   1_456  A
C177        C984   1.411   1_554  A
C177        H186   1.083       .  S
C178        C179   1.410       .  A
C178        H187   1.084       .  S
C179        C180   1.409       .  A
C180        C979   1.409       .  A
C180        H996   1.084       .  S
H188        C988   1.084   1_455  S
C189        C190   1.403       .  A
C189        C194   1.406       .  A
C189        H205   1.083       .  S
C190        C191   1.405       .  A
C190        H206   1.084       .  S
C191        C201   1.411       .  A
C191        C192   1.412       .  A
C192        C198   1.411       .  A
C192        C193   1.418       .  A
C193        C195   1.411       .  A
C193        C194   1.411       .  A
C194        C202   1.410       .  A
C195        C204   1.406       .  A
C195        C196   1.404       .  A
C196        C197   1.400       .  A
C196        H207   1.084       .  S
C197        C198   1.404       .  A
C197        H208   1.083       .  S
C198        C199   1.407       .  A
C199        C200   1.410       .  A
C199        H209   1.084       .  S
C200        C201   1.411       .  A
C201        H210   1.084       .  S
C202        C203   1.413       .  A
C202        H211   1.083       .  S
C203        C204   1.410       .  A
C204        H212   1.084       .  S
C213        C214   1.398       .  A
C213        C218   1.403       .  A
C213        H229   1.084       .  S
C214        C215   1.404       .  A
C214        H230   1.083       .  S
C215        C225   1.404       .  A
C215        C216   1.411       .  A
C216        C222   1.410       .  A
C216        C217   1.413       .  A
C217        C219   1.412       .  A
C217        C218   1.411       .  A
C218        C226   1.402       .  A
C219        C228   1.406       .  A
C219        C220   1.404       .  A
C220        C221   1.400       .  A
C220        H231   1.083       .  S
C221        C222   1.404       .  A
C221        H232   1.084       .  S
C222        C223   1.405       .  A
C223        C224   1.410       .  A
C223        H233   1.084       .  S
C224        C225   1.409       .  A
C225        H234   1.083       .  S
C226        C227   1.407       .  A
C226        H235   1.085       .  S
C227        C228   1.408       .  A
C228        H236   1.084       .  S
C237        C238   1.399       .  A
C237        C242   1.403       .  A
C237        H657   1.084       .  S
C238        C239   1.404       .  A
C238        H658   1.083       .  S
C239        C249   1.404       .  A
C239        C240   1.410       .  A
C240        C246   1.411       .  A
C240        C241   1.414       .  A
C241        C243   1.411       .  A
C241        C242   1.412       .  A
C242        C250   1.404       .  A
C243        C252   1.405       .  A
C243        C244   1.404       .  A
C244        C245   1.400       .  A
C244        H255   1.083       .  S
C245        C246   1.404       .  A
C245        H256   1.084       .  S
C246        C247   1.406       .  A
C247        C248   1.410       .  A
C247        H257   1.084       .  S
C248        C249   1.410       .  A
C249        H662   1.083       .  S
C250        C251   1.408       .  A
C250        H259   1.085       .  S
C251        C252   1.408       .  A
C252        H260   1.084       .  S
H253        C641   1.084       .  S
H254        C642   1.083   1_545  S
H258        C653   1.083   1_545  S
C261        C262   1.401       .  A
C261        C266   1.404       .  A
C261        H277   1.084       .  S
C262        C263   1.404       .  A
C262        H278   1.083       .  S
C263        C273   1.408       .  A
C263        C264   1.411       .  A
C264        C270   1.411       .  A
C264        C265   1.416       .  A
C265        C267   1.411       .  A
C265        C266   1.411       .  A
C266        C274   1.407       .  A
C267        C276   1.406       .  A
C267        C268   1.404       .  A
C268        C269   1.400       .  A
C268        H279   1.083       .  S
C269        C270   1.404       .  A
C269        H280   1.084       .  S
C270        C271   1.406       .  A
C271        C272   1.410       .  A
C271        H281   1.084       .  S
C272        C273   1.409       .  A
C273        H282   1.084       .  S
C274        C275   1.410       .  A
C274        H283   1.084       .  S
C275        C276   1.410       .  A
C276        H284   1.083       .  S
C285        C286   1.399       .  A
C285        C290   1.403       .  A
C285        H301   1.084       .  S
C286        C287   1.404       .  A
C286        H302   1.083       .  S
C287        C297   1.405       .  A
C287        C288   1.411       .  A
C288        C294   1.410       .  A
C288        C289   1.416       .  A
C289        C291   1.412       .  A
C289        C290   1.410       .  A
C290        C298   1.403       .  A
C291        C300   1.410       .  A
C291        C292   1.405       .  A
C292        C293   1.402       .  A
C292        H303   1.083       .  S
C293        C294   1.405       .  A
C293        H304   1.083       .  S
C294        C295   1.408       .  A
C295        C296   1.412       .  A
C295        H305   1.084       .  S
C296        C297   1.410       .  A
C297        H306   1.083       .  S
C298        C299   1.408       .  A
C298        H307   1.084       .  S
C299        C300   1.410       .  A
C300        H308   1.084       .  S
C309        C310   1.399       .  A
C309        C314   1.404       .  A
C309        H325   1.083       .  S
C310        C311   1.404       .  A
C310        H326   1.084       .  S
C311        C321   1.405       .  A
C311        C312   1.411       .  A
C312        C313   1.417       .  A
C312       C1126   1.411       .  A
C313        C315   1.413       .  A
C313        C314   1.410       .  A
C314        C322   1.404       .  A
C315        C324   1.411       .  A
C315       C1124   1.405       .  A
C316        C317   1.403       .  A
C316       C1123   1.405       .  A
C316        H327   1.084       .  S
C317        C318   1.406       .  A
C317        H328   1.083       .  S
C318        C319   1.410       .  A
C318       C1120   1.411   1_455  A
C319        C320   1.412       .  A
C319        H329   1.083       .  S
C320       C1129   1.410   1_455  A
C321       C1128   1.410       .  A
C321        H330   1.084       .  S
C322        C323   1.409       .  A
C322        H331   1.084       .  S
C323        C324   1.410       .  A
C324        H332   1.084       .  S
C333        C334   1.399       .  A
C333        C338   1.403       .  A
C333        H349   1.084       .  S
C334        C335   1.404       .  A
C334        H350   1.083       .  S
C335        C345   1.404       .  A
C335       C1144   1.411   1_455  A
C336        C342   1.411       .  A
C336        C337   1.413       .  A
C336       C1143   1.411       .  A
C337        C339   1.412       .  A
C337       C1146   1.411       .  A
C338       C1145   1.411   1_455  A
C338       C1154   1.402   1_455  A
C339        C348   1.405       .  A
C339        C340   1.404       .  A
C340        C341   1.400       .  A
C340        H351   1.083       .  S
C341        C342   1.404       .  A
C341        H352   1.084       .  S
C342        C343   1.404       .  A
C343       C1152   1.409       .  A
C343        H353   1.084       .  S
C344        C345   1.409       .  A
C344       C1151   1.409   1_455  A
C345        H354   1.083       .  S
C346        C347   1.408       .  A
C346       C1146   1.402       .  A
C346       H1163   1.084       .  S
C347        C348   1.407       .  A
C348        H356   1.084       .  S
H355       C1154   1.084   1_455  S
C357        C358   1.400       .  A
C357        C362   1.405       .  A
C357        H373   1.083       .  S
C358        C359   1.404       .  A
C358        H374   1.084       .  S
C359        C369   1.405       .  A
C359        C360   1.412       .  A
C360        C366   1.411       .  A
C360        C361   1.414       .  A
C361        C363   1.411       .  A
C361        C362   1.411       .  A
C362        C370   1.406       .  A
C363        C372   1.404       .  A
C363        C364   1.404       .  A
C364        C365   1.399       .  A
C364        H375   1.083       .  S
C365        C366   1.403       .  A
C365        H376   1.084       .  S
C366        C367   1.402       .  A
C367        C368   1.407       .  A
C367        H377   1.084       .  S
C368        C369   1.408       .  A
C369        H378   1.084       .  S
C370        C371   1.410       .  A
C370        H379   1.084       .  S
C371        C372   1.410       .  A
C372        H380   1.083       .  S
C381        C382   1.400       .  A
C381        C386   1.404       .  A
C381        H397   1.083       .  S
C382        C383   1.403       .  A
C382        H398   1.084       .  S
C383        C393   1.404       .  A
C383        C384   1.412       .  A
C384        C390   1.411       .  A
C384        C385   1.413       .  A
C385        C387   1.411       .  A
C385        C386   1.410       .  A
C386        C394   1.404       .  A
C387        C396   1.405       .  A
C387        C388   1.404       .  A
C388        C389   1.400       .  A
C388        H399   1.084       .  S
C389        C390   1.404       .  A
C389        H400   1.083       .  S
C390        C391   1.404       .  A
C391        C392   1.407       .  A
C391        H401   1.084       .  S
C392        C393   1.408       .  A
C393        H402   1.085       .  S
C394        C395   1.410       .  A
C394        H403   1.083       .  S
C395        C396   1.409       .  A
C396        H404   1.084       .  S
C405        N406   1.364       .  A
C405        N410   1.363       .  A
C405        C799   1.490       .  S
N406        C407   1.359       .  A
C407        N408   1.358       .  A
C407        C413   1.471       .  S
N408        C409   1.357       .  A
C409        N410   1.359       .  A
C409        C437   1.473       .  S
C411        N412   1.364       .  A
C411        N416   1.366       .  A
C411        C775   1.493       .  S
N412        C413   1.359       .  A
C413        N414   1.355       .  A
N414        C415   1.356       .  A
C415        N416   1.361       .  A
C415        C419   1.474       .  S
C417        N418   1.364       .  A
C417        N422   1.363       .  A
C417        C748   1.488       .  S
N418        C419   1.359       .  A
C419        N420   1.359       .  A
N420        C421   1.358       .  A
C421        N422   1.358       .  A
C421        C431   1.475       .  S
C423        N424   1.366       .  A
C423        N428   1.366       .  A
C423        C724   1.496       .  S
N424        C425   1.360       .  A
C425        N426   1.355       .  A
C425        C433   1.473       .  S
N426        C427   1.356       .  A
C427        N428   1.362       .  A
C427        C439   1.474       .  S
C429        N434   1.364       .  A
C429        C700   1.494       .  S
N430       C1239   1.360       .  A
C431       N1238   1.360   1_455  A
C431        N432   1.357       .  A
C433       N1242   1.360   1_455  A
N434       C1241   1.360       .  A
C435        N440   1.365       .  A
C435        C679   1.493       .  S
N436        C437   1.360       .  A
C437        N438   1.357       .  A
C439        N440   1.360       .  A
O441       Cr459   2.003       .  S
O441        C449   1.266       .  A
O442       Cr459   1.992       .  S
O442        C443   1.262       .  A
C443        C604   1.494       .  S
C443        O444   1.268       .  A
O444       Cr460   2.015       .  S
O445       Cr460   1.978       .  S
O445        C446   1.261       .  A
C446        C655   1.483       .  S
C446        O447   1.267       .  A
O447       Cr461   2.009       .  S
O448       Cr461   1.981       .  S
O448        C449   1.261       .  A
C449        C631   1.482       .  S
O450       Cr459   1.990       .  S
O450        C458   1.262       .  A
O451       Cr459   2.004       .  S
O451        C452   1.266       .  A
C452        C772   1.481       .  S
C452        O453   1.260       .  A
O453       Cr460   1.978       .  S
O454       Cr460   2.013       .  S
O454        C455   1.267       .  A
C455        C676   1.490       .  S
C455        O456   1.262       .  A
O456       Cr461   1.987       .  S
O457       Cr461   2.004       .  S
O457        C458   1.266       .  A
C458        C703   1.489       .  S
Cr459       O462   1.779       .  S
Cr460       O462   1.777       .  S
Cr461       O462   1.778       .  S
C463        N464   1.365       .  A
C463        N468   1.365       .  A
C463        C580   1.494       .  S
N464        C465   1.361       .  A
C465        N466   1.357       .  A
C465        C495   1.474       .  S
N466        C467   1.356       .  A
C467        N468   1.360       .  A
C467        C473   1.474       .  S
C469        N470   1.364       .  A
C469        C628   1.489       .  S
N470       C1279   1.359       .  A
C471       N1278   1.359   1_455  A
C471        C477   1.474       .  S
N472        C473   1.358       .  A
C473       N1282   1.358   1_455  A
N474       C1281   1.358       .  A
C475        N476   1.366       .  A
C475        N480   1.366       .  A
C475        C556   1.494       .  S
N476        C477   1.362       .  A
C477        N478   1.356       .  A
N478        C479   1.356       .  A
C479        N480   1.360       .  A
C479        C485   1.474       .  S
C481        N486   1.365       .  A
C481        C652   1.492       .  S
N482        C483   1.359       .  A
C483        N484   1.358       .  A
C483        C491   1.476       .  S
C485        N486   1.360       .  A
C487        N488   1.363       .  A
C487        N492   1.366       .  A
C487        C535   1.492       .  S
N488        C489   1.357       .  A
C489        N490   1.358       .  A
C489        C497   1.473       .  S
N490        C491   1.358       .  A
C491        N492   1.362       .  A
C493        N494   1.366       .  A
C493        N498   1.366       .  A
C493        C607   1.497       .  S
N494        C495   1.361       .  A
C495        N496   1.356       .  A
N496        C497   1.355       .  A
C497        N498   1.362       .  A
O499       Cr517   1.981       .  S
O499        C507   1.260       .  A
O500       Cr517   2.007       .  S
O500        C501   1.266       .  A
C501        C532   1.485       .  S
C501        O502   1.262       .  A
O502       Cr518   1.983       .  S
O503       Cr518   2.004       .  S
O503        C504   1.265       .  A
C504        C583   1.489       .  S
C504        O505   1.263       .  A
O505       Cr519   1.992       .  S
O506       Cr519   2.002       .  S
O506        C507   1.266       .  A
C507        C559   1.483       .  S
O508       Cr517   2.008       .  S
O508        C516   1.267       .  A
O509       Cr517   1.980       .  S
O509        C510   1.261       .  A
C510        C796   1.482       .  S
C510        O511   1.266       .  A
O511       Cr518   2.007       .  S
O512       Cr518   1.981       .  S
O512        C513   1.262       .  A
C513        C751   1.481       .  S
C513        O514   1.266       .  A
O514       Cr519   2.002       .  S
O515       Cr519   1.993       .  S
O515        C516   1.263       .  A
C516        C727   1.491       .  S
Cr517       O520   1.775       .  S
Cr518       O520   1.774       .  S
Cr519       O520   1.776       .  S
C521        C522   1.400       .  A
C521        C526   1.405       .  A
C521        H537   1.083       .  S
C522        C523   1.404       .  A
C522        H538   1.084       .  S
C523        C533   1.404       .  A
C523        C524   1.412       .  A
C524        C530   1.411       .  A
C524        C525   1.415       .  A
C525        C527   1.412       .  A
C525        C526   1.410       .  A
C526        C534   1.404       .  A
C527        C536   1.407       .  A
C527        C528   1.404       .  A
C528        C529   1.401       .  A
C528        H539   1.084       .  S
C529        C530   1.404       .  A
C529        H540   1.083       .  S
C530        C531   1.406       .  A
C531        C532   1.408       .  A
C531        H541   1.084       .  S
C532        C533   1.409       .  A
C533        H542   1.085       .  S
C534        C535   1.411   1_554  A
C534        H543   1.083       .  S
C535        C536   1.409   1_556  A
C536        H544   1.084   1_554  S
C545        C546   1.398       .  A
C545        C550   1.402   1_455  A
C545        H561   1.084       .  S
C546        C547   1.404       .  A
C546        H562   1.083       .  S
C547        C557   1.404       .  A
C547       C1356   1.411   1_455  A
C548       C1355   1.411       .  A
C548        C554   1.411       .  A
C548        C549   1.414       .  A
C549        C551   1.412       .  A
C549       C1358   1.411       .  A
C550       C1357   1.411       .  A
C550       C1366   1.401       .  A
C551        C560   1.408       .  A
C551        C552   1.404       .  A
C552        C553   1.402       .  A
C552        H563   1.083       .  S
C553        C554   1.405       .  A
C553        H564   1.083       .  S
C554        C555   1.409       .  A
C555       C1364   1.412   1_554  A
C555        H565   1.084   1_554  S
C556       C1363   1.412   1_456  A
C556        C557   1.410   1_556  A
C557        H566   1.083       .  S
C558       C1358   1.401       .  A
C558        C559   1.407       .  A
C558       H1375   1.084       .  S
C559        C560   1.409       .  A
C560        H568   1.084       .  S
H567       C1366   1.084   1_455  S
C569        C570   1.400       .  A
C569        C574   1.404       .  A
C569        H585   1.084       .  S
C570        C571   1.404       .  A
C570        H586   1.083       .  S
C571        C581   1.406       .  A
C571        C572   1.411       .  A
C572       C1386   1.411       .  A
C572        C573   1.416       .  A
C573       C1383   1.412       .  A
C573        C574   1.410       .  A
C574        C582   1.404       .  A
C575       C1381   1.412       .  A
C575       C1392   1.409       .  A
C575        C576   1.404   1_655  A
C576        C577   1.401       .  A
C576        H587   1.083       .  S
C577        C578   1.405       .  A
C577        H588   1.083       .  S
C578       C1380   1.411   1_455  A
C578        C579   1.407       .  A
C579        C580   1.411   1_554  A
C579        H589   1.084   1_554  S
C580       C1389   1.411   1_456  A
C581       C1388   1.411   1_554  A
C581        H590   1.083       .  S
C582        C583   1.410       .  A
C582        H591   1.084       .  S
C583        C584   1.409       .  A
C584       C1383   1.409       .  A
C584       H1400   1.084       .  S
H592       C1392   1.084   1_455  S
C593        C594   1.403       .  A
C593        C598   1.406       .  A
C593        H609   1.083       .  S
C594        C595   1.405       .  A
C594        H610   1.084       .  S
C595        C605   1.411       .  A
C595        C596   1.412       .  A
C596        C602   1.411       .  A
C596        C597   1.418       .  A
C597        C599   1.411       .  A
C597        C598   1.411       .  A
C598        C606   1.410       .  A
C599        C608   1.406       .  A
C599        C600   1.404       .  A
C600        C601   1.400       .  A
C600        H611   1.084       .  S
C601        C602   1.404       .  A
C601        H612   1.083       .  S
C602        C603   1.407       .  A
C603        C604   1.410       .  A
C603        H613   1.084       .  S
C604        C605   1.411       .  A
C605        H614   1.084       .  S
C606        C607   1.413       .  A
C606        H615   1.083       .  S
C607        C608   1.410       .  A
C608        H616   1.084       .  S
C617        C618   1.398       .  A
C617        C622   1.403       .  A
C617        H633   1.084       .  S
C618        C619   1.404       .  A
C618        H634   1.083       .  S
C619        C629   1.404       .  A
C619        C620   1.411       .  A
C620        C626   1.410       .  A
C620        C621   1.413       .  A
C621        C623   1.412       .  A
C621        C622   1.411       .  A
C622        C630   1.402       .  A
C623        C632   1.406       .  A
C623        C624   1.404       .  A
C624        C625   1.400       .  A
C624        H635   1.083       .  S
C625        C626   1.404       .  A
C625        H636   1.084   1_565  S
C626        C627   1.405       .  A
C627        C628   1.410       .  A
C627        H637   1.084   1_565  S
C628        C629   1.409       .  A
C629        H638   1.083       .  S
C630        C631   1.407       .  A
C630        H639   1.085       .  S
C631        C632   1.408       .  A
C632        H640   1.084       .  S
C641        C642   1.399       .  A
C641        C646   1.403       .  A
C642        C643   1.404       .  A
C643        C653   1.404       .  A
C643        C644   1.410       .  A
C644        C650   1.411       .  A
C644        C645   1.414       .  A
C645        C647   1.411       .  A
C645        C646   1.412       .  A
C646        C654   1.404       .  A
C647        C656   1.405       .  A
C647        C648   1.404       .  A
C648        C649   1.400       .  A
C648        H659   1.083       .  S
C649        C650   1.404       .  A
C649        H660   1.084       .  S
C650        C651   1.406       .  A
C651        C652   1.410       .  A
C651        H661   1.084       .  S
C652        C653   1.410       .  A
C654        C655   1.408       .  A
C654        H663   1.085       .  S
C655        C656   1.408       .  A
C656        H664   1.084       .  S
C665        C666   1.401       .  A
C665        C670   1.404       .  A
C665        H681   1.084   1_565  S
C666        C667   1.404       .  A
C666        H682   1.083       .  S
C667        C677   1.408       .  A
C667        C668   1.411       .  A
C668        C674   1.411       .  A
C668        C669   1.416       .  A
C669        C671   1.411       .  A
C669        C670   1.411       .  A
C670        C678   1.407       .  A
C671        C680   1.406       .  A
C671        C672   1.404       .  A
C672        C673   1.400       .  A
C672        H683   1.083       .  S
C673        C674   1.404       .  A
C673        H684   1.084       .  S
C674        C675   1.406       .  A
C675        C676   1.410       .  A
C675        H685   1.084       .  S
C676        C677   1.409       .  A
C677        H686   1.084       .  S
C678        C679   1.410       .  A
C678        H687   1.084   1_565  S
C679        C680   1.410       .  A
C680        H688   1.083       .  S
C689        C690   1.399       .  A
C689        C694   1.403       .  A
C689        H705   1.084       .  S
C690        C691   1.404       .  A
C690        H706   1.083   1_565  S
C691        C701   1.405       .  A
C691        C692   1.411       .  A
C692        C698   1.410       .  A
C692        C693   1.416       .  A
C693        C695   1.412       .  A
C693        C694   1.410       .  A
C694        C702   1.403       .  A
C695        C704   1.410       .  A
C695        C696   1.405       .  A
C696        C697   1.402       .  A
C696        H707   1.083       .  S
C697        C698   1.405       .  A
C697        H708   1.083       .  S
C698        C699   1.408       .  A
C699        C700   1.412       .  A
C699        H709   1.084       .  S
C700        C701   1.410       .  A
C701        H710   1.083   1_565  S
C702        C703   1.408       .  A
C702        H711   1.084       .  S
C703        C704   1.410       .  A
C704        H712   1.084       .  S
C713        C714   1.399       .  A
C713        C718   1.404       .  A
C713        H729   1.083       .  S
C714        C715   1.404       .  A
C714        H730   1.084       .  S
C715        C725   1.405       .  A
C715        C716   1.411       .  A
C716       C1530   1.411       .  A
C716        C717   1.417       .  A
C717        C719   1.413       .  A
C717        C718   1.410       .  A
C718        C726   1.404       .  A
C719        C728   1.411       .  A
C719       C1528   1.405       .  A
C720       C1527   1.405       .  A
C720        C721   1.403       .  A
C720        H731   1.084       .  S
C721        C722   1.406       .  A
C721        H732   1.083       .  S
C722       C1524   1.411   1_455  A
C722        C723   1.410       .  A
C723        C724   1.412       .  A
C723        H733   1.083       .  S
C724       C1533   1.410   1_455  A
C725       C1532   1.410       .  A
C725        H734   1.084       .  S
C726        C727   1.409       .  A
C726        H735   1.084       .  S
C727        C728   1.410       .  A
C728        H736   1.084       .  S
C737        C738   1.399       .  A
C737        C742   1.403       .  A
C737        H753   1.084       .  S
C738        C739   1.404       .  A
C738        H754   1.083       .  S
C739        C749   1.404       .  A
C739       C1548   1.411   1_455  A
C740       C1547   1.411       .  A
C740        C746   1.411       .  A
C740        C741   1.413       .  A
C741        C743   1.412       .  A
C741       C1550   1.411       .  A
C742       C1549   1.411   1_455  A
C742       C1558   1.402   1_455  A
C743        C752   1.405       .  A
C743        C744   1.404       .  A
C744        C745   1.400       .  A
C744        H755   1.083       .  S
C745        C746   1.404       .  A
C745        H756   1.084       .  S
C746        C747   1.404       .  A
C747       C1556   1.409       .  A
C747        H757   1.084       .  S
C748       C1555   1.409   1_455  A
C748        C749   1.409       .  A
C749        H758   1.083       .  S
C750       C1550   1.402       .  A
C750        C751   1.408       .  A
C750       H1567   1.084       .  S
C751        C752   1.407       .  A
C752        H760   1.084       .  S
H759       C1558   1.084   1_455  S
C761        C762   1.400       .  A
C761        C766   1.405       .  A
C761        H777   1.083       .  S
C762        C763   1.404       .  A
C762        H778   1.084       .  S
C763        C773   1.405       .  A
C763        C764   1.412       .  A
C764        C770   1.411       .  A
C764        C765   1.414       .  A
C765        C767   1.411       .  A
C765        C766   1.411       .  A
C766        C774   1.406       .  A
C767        C776   1.404       .  A
C767        C768   1.404       .  A
C768        C769   1.399       .  A
C768        H779   1.083       .  S
C769        C770   1.403       .  A
C769        H780   1.084       .  S
C770        C771   1.402       .  A
C771        C772   1.407       .  A
C771        H781   1.084       .  S
C772        C773   1.408       .  A
C773        H782   1.084       .  S
C774        C775   1.410       .  A
C774        H783   1.084       .  S
C775        C776   1.410       .  A
C776        H784   1.083       .  S
C785        C786   1.400       .  A
C785        C790   1.404       .  A
C785        H801   1.083       .  S
C786        C787   1.403       .  A
C786        H802   1.084       .  S
C787        C797   1.404       .  A
C787        C788   1.412       .  A
C788        C794   1.411       .  A
C788        C789   1.413       .  A
C789        C791   1.411       .  A
C789        C790   1.410       .  A
C790        C798   1.404       .  A
C791        C800   1.405       .  A
C791        C792   1.404       .  A
C792        C793   1.400       .  A
C792        H803   1.084       .  S
C793        C794   1.404       .  A
C793        H804   1.083       .  S
C794        C795   1.404       .  A
C795        C796   1.407       .  A
C795        H805   1.084       .  S
C796        C797   1.408       .  A
C797        H806   1.085       .  S
C798        C799   1.410       .  A
C798        H807   1.083       .  S
C799        C800   1.409       .  A
C800        H808   1.084       .  S
C809        N810   1.364       .  A
C809        N814   1.363       .  A
C809       C1203   1.490       .  S
N810        C811   1.359       .  A
C811        N812   1.358       .  A
C811        C817   1.471       .  S
N812        C813   1.357       .  A
C813        N814   1.359       .  A
C813        C841   1.473       .  S
C815        N816   1.364       .  A
C815        N820   1.366       .  A
C815       C1179   1.493       .  S
N816        C817   1.359       .  A
C817        N818   1.355       .  A
N818        C819   1.356       .  A
C819        N820   1.361       .  A
C819        C823   1.474       .  S
C821        N822   1.364       .  A
C821        N826   1.363       .  A
C821       C1152   1.488       .  S
N822        C823   1.359       .  A
C823        N824   1.359       .  A
N824        C825   1.358       .  A
C825        N826   1.358       .  A
C825        C835   1.475       .  S
C827        N828   1.366       .  A
C827        N832   1.366       .  A
C827       C1128   1.496       .  S
N828        C829   1.360       .  A
C829        N830   1.355       .  A
C829        C837   1.473       .  S
N830        C831   1.356       .  A
C831        N832   1.362       .  A
C831        C843   1.474       .  S
C833       N1238   1.365       .  A
C833        N838   1.364       .  A
C833       C1104   1.494       .  S
N834       C1237   1.365   1_545  A
C835        N836   1.357       .  A
N836       C1241   1.358   1_545  A
C837       N1240   1.358       .  A
C839       N1244   1.364       .  A
C839        N844   1.365       .  A
C839       C1083   1.493       .  S
N840       C1243   1.364   1_545  A
N840        C841   1.360       .  A
C841        N842   1.357       .  A
N842       C1247   1.358   1_545  A
C843       N1246   1.358       .  A
C843        N844   1.360       .  A
O845       Cr863   2.003       .  S
O845        C853   1.266       .  A
O846       Cr863   1.992       .  S
O846        C847   1.262       .  A
C847       C1008   1.494       .  S
C847        O848   1.268       .  A
O848       Cr864   2.015       .  S
O849       Cr864   1.978       .  S
O849        C850   1.261       .  A
C850       C1059   1.483       .  S
C850        O851   1.267       .  A
O851       Cr865   2.009       .  S
O852       Cr865   1.981       .  S
O852        C853   1.261       .  A
C853       C1035   1.482       .  S
O854       Cr863   1.990       .  S
O854        C862   1.262       .  A
O855       Cr863   2.004       .  S
O855        C856   1.266       .  A
C856       C1176   1.481       .  S
C856        O857   1.260       .  A
O857       Cr864   1.978       .  S
O858       Cr864   2.013       .  S
O858        C859   1.267       .  A
C859       C1080   1.490       .  S
C859        O860   1.262       .  A
O860       Cr865   1.987       .  S
O861       Cr865   2.004       .  S
O861        C862   1.266       .  A
C862       C1107   1.489       .  S
Cr863       O866   1.779       .  S
Cr864       O866   1.777       .  S
Cr865       O866   1.778       .  S
C867        N868   1.365       .  A
C867        N872   1.365       .  A
C867        C984   1.494       .  S
N868        C869   1.361       .  A
C869        N870   1.357       .  A
C869        C899   1.474       .  S
N870        C871   1.356       .  A
C871        N872   1.360       .  A
C871        C877   1.474       .  S
C873        N874   1.364       .  A
C873       N1282   1.363       .  A
C873       C1032   1.489       .  S
C875       N1280   1.359       .  A
C875        C881   1.474       .  S
N876       C1279   1.359   1_545  A
N876        C877   1.358       .  A
N878       C1277   1.363   1_545  A
C879        N880   1.366       .  A
C879        N884   1.366       .  A
C879        C960   1.494       .  S
N880        C881   1.362       .  A
C881        N882   1.356       .  A
N882        C883   1.356       .  A
C883        N884   1.360       .  A
C883        C889   1.474       .  S
C885       N1290   1.365       .  A
C885        N890   1.365       .  A
C885       C1056   1.492       .  S
N886       C1289   1.365   1_545  A
N886        C887   1.359       .  A
C887        N888   1.358       .  A
C887        C895   1.476       .  S
N888       C1293   1.358   1_545  A
C889       N1292   1.358       .  A
C889        N890   1.360       .  A
C891        N892   1.363       .  A
C891        N896   1.366       .  A
C891        C939   1.492       .  S
N892        C893   1.357       .  A
C893        N894   1.358       .  A
C893        C901   1.473       .  S
N894        C895   1.358       .  A
C895        N896   1.362       .  A
C897        N898   1.366       .  A
C897        N902   1.366       .  A
C897       C1011   1.497       .  S
N898        C899   1.361       .  A
C899        N900   1.356       .  A
N900        C901   1.355       .  A
C901        N902   1.362       .  A
O903       Cr921   1.981       .  S
O903        C911   1.260       .  A
O904       Cr921   2.007       .  S
O904        C905   1.266       .  A
C905        C936   1.485       .  S
C905        O906   1.262       .  A
O906       Cr922   1.983       .  S
O907       Cr922   2.004       .  S
O907        C908   1.265       .  A
C908        C987   1.489       .  S
C908        O909   1.263       .  A
O909       Cr923   1.992       .  S
O910       Cr923   2.002       .  S
O910        C911   1.266       .  A
C911        C963   1.483       .  S
O912       Cr921   2.008       .  S
O912        C920   1.267       .  A
O913       Cr921   1.980       .  S
O913        C914   1.261       .  A
C914       C1200   1.482       .  S
C914        O915   1.266       .  A
O915       Cr922   2.007       .  S
O916       Cr922   1.981       .  S
O916        C917   1.262       .  A
C917       C1155   1.481       .  S
C917        O918   1.266       .  A
O918       Cr923   2.002       .  S
O919       Cr923   1.993       .  S
O919        C920   1.263       .  A
C920       C1131   1.491       .  S
Cr921       O924   1.775       .  S
Cr922       O924   1.774       .  S
Cr923       O924   1.775       .  S
C925        C926   1.400       .  A
C925        C930   1.405       .  A
C925        H941   1.083       .  S
C926        C927   1.403       .  A
C926        H942   1.084       .  S
C927        C937   1.404       .  A
C927        C928   1.412       .  A
C928        C934   1.411       .  A
C928        C929   1.415       .  A
C929        C931   1.412       .  A
C929        C930   1.410       .  A
C930        C938   1.404       .  A
C931        C940   1.407       .  A
C931        C932   1.404       .  A
C932        C933   1.401       .  A
C932        H943   1.084       .  S
C933        C934   1.404       .  A
C933        H944   1.083       .  S
C934        C935   1.406       .  A
C935        C936   1.408       .  A
C935        H945   1.084       .  S
C936        C937   1.409       .  A
C937        H946   1.085       .  S
C938        C939   1.411   1_554  A
C938        H947   1.083       .  S
C939        C940   1.409   1_556  A
C940        H948   1.084   1_554  S
C949        C950   1.398       .  A
C949        C954   1.402       .  A
C949        H965   1.084       .  S
C950        C951   1.404       .  A
C950        H966   1.083       .  S
C951        C961   1.404       .  A
C952        C958   1.411       .  A
C952        C953   1.414       .  A
C953        C955   1.412       .  A
C955        C964   1.408       .  A
C955        C956   1.404       .  A
C956        C957   1.402       .  A
C956        H967   1.083       .  S
C957        C958   1.405       .  A
C957        H968   1.083       .  S
C958        C959   1.409       .  A
C959        H969   1.084   1_554  S
C960        C961   1.410   1_556  A
C961        H970   1.083       .  S
C962        C963   1.407       .  A
C963        C964   1.409       .  A
C964        H972   1.084       .  S
C973        C974   1.400       .  A
C973        C978   1.404       .  A
C973        H989   1.084       .  S
C974        C975   1.404       .  A
C974        H990   1.083       .  S
C975        C985   1.406       .  A
C975        C976   1.411       .  A
C976        C977   1.416       .  A
C977        C978   1.410       .  A
C978        C986   1.404       .  A
C979        C980   1.404       .  A
C980        C981   1.401       .  A
C980        H991   1.083       .  S
C981        C982   1.405       .  A
C981        H992   1.083       .  S
C982        C983   1.407       .  A
C983        C984   1.411   1_554  A
C983        H993   1.084   1_554  S
C985        H994   1.083       .  S
C986        C987   1.410       .  A
C986        H995   1.084       .  S
C987        C988   1.409       .  A
C997        C998   1.403       .  A
C997       C1002   1.406       .  A
C997       H1013   1.083       .  S
C998        C999   1.405       .  A
C998       H1014   1.084       .  S
C999       C1009   1.411       .  A
C999       C1000   1.412       .  A
C1000      C1006   1.411       .  A
C1000      C1001   1.418       .  A
C1001      C1003   1.411       .  A
C1001      C1002   1.411       .  A
C1002      C1010   1.410       .  A
C1003      C1012   1.406       .  A
C1003      C1004   1.404       .  A
C1004      C1005   1.400       .  A
C1004      H1015   1.084       .  S
C1005      C1006   1.404       .  A
C1005      H1016   1.083       .  S
C1006      C1007   1.407       .  A
C1007      C1008   1.410       .  A
C1007      H1017   1.084       .  S
C1008      C1009   1.411       .  A
C1009      H1018   1.084       .  S
C1010      C1011   1.413       .  A
C1010      H1019   1.083       .  S
C1011      C1012   1.410       .  A
C1012      H1020   1.084       .  S
C1021      C1022   1.398       .  A
C1021      C1026   1.403       .  A
C1021      H1037   1.084       .  S
C1022      C1023   1.404       .  A
C1022      H1038   1.083       .  S
C1023      C1033   1.404       .  A
C1023      C1024   1.411       .  A
C1024      C1030   1.410       .  A
C1024      C1025   1.413       .  A
C1025      C1027   1.412       .  A
C1025      C1026   1.411       .  A
C1026      C1034   1.402       .  A
C1027      C1036   1.406       .  A
C1027      C1028   1.404       .  A
C1028      C1029   1.400       .  A
C1028      H1039   1.083       .  S
C1029      C1030   1.404       .  A
C1029      H1040   1.084       .  S
C1030      C1031   1.405       .  A
C1031      C1032   1.410       .  A
C1031      H1041   1.084       .  S
C1032      C1033   1.409       .  A
C1033      H1042   1.083       .  S
C1034      C1035   1.407       .  A
C1034      H1043   1.085       .  S
C1035      C1036   1.408       .  A
C1036      H1044   1.084       .  S
C1045      C1046   1.399       .  A
C1045      C1050   1.403       .  A
C1045      H1465   1.084       .  S
C1046      C1047   1.404       .  A
C1046      H1466   1.083       .  S
C1047      C1057   1.404       .  A
C1047      C1048   1.410       .  A
C1048      C1054   1.411       .  A
C1048      C1049   1.414       .  A
C1049      C1051   1.411       .  A
C1049      C1050   1.412       .  A
C1050      C1058   1.404       .  A
C1051      C1060   1.405       .  A
C1051      C1052   1.404       .  A
C1052      C1053   1.400       .  A
C1052      H1063   1.083       .  S
C1053      C1054   1.404       .  A
C1053      H1064   1.084       .  S
C1054      C1055   1.406       .  A
C1055      C1056   1.410       .  A
C1055      H1065   1.084       .  S
C1056      C1057   1.410       .  A
C1057      H1470   1.083       .  S
C1058      C1059   1.408       .  A
C1058      H1067   1.085       .  S
C1059      C1060   1.408       .  A
C1060      H1068   1.084       .  S
H1061      C1449   1.084       .  S
H1062      C1450   1.083   1_545  S
H1066      C1461   1.083   1_545  S
C1069      C1070   1.401       .  A
C1069      C1074   1.404       .  A
C1069      H1085   1.084       .  S
C1070      C1071   1.404       .  A
C1070      H1086   1.083       .  S
C1071      C1081   1.408       .  A
C1071      C1072   1.411       .  A
C1072      C1078   1.411       .  A
C1072      C1073   1.416       .  A
C1073      C1075   1.411       .  A
C1073      C1074   1.411       .  A
C1074      C1082   1.407       .  A
C1075      C1084   1.406       .  A
C1075      C1076   1.404       .  A
C1076      C1077   1.400       .  A
C1076      H1087   1.083       .  S
C1077      C1078   1.404       .  A
C1077      H1088   1.084       .  S
C1078      C1079   1.406       .  A
C1079      C1080   1.410       .  A
C1079      H1089   1.084       .  S
C1080      C1081   1.409       .  A
C1081      H1090   1.084       .  S
C1082      C1083   1.410       .  A
C1082      H1091   1.084       .  S
C1083      C1084   1.410       .  A
C1084      H1092   1.083       .  S
C1093      C1094   1.399       .  A
C1093      C1098   1.403       .  A
C1093      H1109   1.084       .  S
C1094      C1095   1.404       .  A
C1094      H1110   1.083       .  S
C1095      C1105   1.405       .  A
C1095      C1096   1.411       .  A
C1096      C1102   1.410       .  A
C1096      C1097   1.416       .  A
C1097      C1099   1.412       .  A
C1097      C1098   1.410       .  A
C1098      C1106   1.403       .  A
C1099      C1108   1.410       .  A
C1099      C1100   1.405       .  A
C1100      C1101   1.402       .  A
C1100      H1111   1.083       .  S
C1101      C1102   1.405       .  A
C1101      H1112   1.083       .  S
C1102      C1103   1.408       .  A
C1103      C1104   1.412       .  A
C1103      H1113   1.084       .  S
C1104      C1105   1.410       .  A
C1105      H1114   1.083       .  S
C1106      C1107   1.408       .  A
C1106      H1115   1.084       .  S
C1107      C1108   1.410       .  A
C1108      H1116   1.084       .  S
C1117      C1118   1.399       .  A
C1117      C1122   1.404       .  A
C1117      H1133   1.083       .  S
C1118      C1119   1.404       .  A
C1118      H1134   1.084       .  S
C1119      C1129   1.405       .  A
C1119      C1120   1.411       .  A
C1120      C1121   1.417       .  A
C1121      C1123   1.413   1_655  A
C1121      C1122   1.410       .  A
C1122      C1130   1.404       .  A
C1123      C1132   1.411   1_455  A
C1124      C1125   1.403       .  A
C1124      H1135   1.084       .  S
C1125      C1126   1.406       .  A
C1125      H1136   1.083       .  S
C1126      C1127   1.410       .  A
C1127      C1128   1.412       .  A
C1127      H1137   1.083       .  S
C1129      H1138   1.084       .  S
C1130      C1131   1.409       .  A
C1130      H1139   1.084       .  S
C1131      C1132   1.410       .  A
C1132      H1140   1.084   1_655  S
C1141      C1142   1.399       .  A
C1141      C1146   1.403       .  A
C1141      H1157   1.084       .  S
C1142      C1143   1.404       .  A
C1142      H1158   1.083       .  S
C1143      C1153   1.404       .  A
C1144      C1150   1.411       .  A
C1144      C1145   1.413       .  A
C1145      C1147   1.412       .  A
C1147      C1156   1.405       .  A
C1147      C1148   1.404       .  A
C1148      C1149   1.400       .  A
C1148      H1159   1.083       .  S
C1149      C1150   1.404       .  A
C1149      H1160   1.084       .  S
C1150      C1151   1.404       .  A
C1151      H1161   1.084       .  S
C1152      C1153   1.409       .  A
C1153      H1162   1.083       .  S
C1154      C1155   1.408       .  A
C1155      C1156   1.407       .  A
C1156      H1164   1.084       .  S
C1165      C1166   1.400       .  A
C1165      C1170   1.405       .  A
C1165      H1181   1.083       .  S
C1166      C1167   1.404       .  A
C1166      H1182   1.084       .  S
C1167      C1177   1.405       .  A
C1167      C1168   1.412       .  A
C1168      C1174   1.411       .  A
C1168      C1169   1.414       .  A
C1169      C1171   1.411       .  A
C1169      C1170   1.411       .  A
C1170      C1178   1.406       .  A
C1171      C1180   1.404       .  A
C1171      C1172   1.404       .  A
C1172      C1173   1.399       .  A
C1172      H1183   1.083       .  S
C1173      C1174   1.403       .  A
C1173      H1184   1.084       .  S
C1174      C1175   1.402       .  A
C1175      C1176   1.407       .  A
C1175      H1185   1.084       .  S
C1176      C1177   1.408       .  A
C1177      H1186   1.084       .  S
C1178      C1179   1.410       .  A
C1178      H1187   1.084       .  S
C1179      C1180   1.410       .  A
C1180      H1188   1.083       .  S
C1189      C1190   1.400       .  A
C1189      C1194   1.404       .  A
C1189      H1205   1.083       .  S
C1190      C1191   1.403       .  A
C1190      H1206   1.084       .  S
C1191      C1201   1.404       .  A
C1191      C1192   1.412       .  A
C1192      C1198   1.411       .  A
C1192      C1193   1.413       .  A
C1193      C1195   1.411       .  A
C1193      C1194   1.410       .  A
C1194      C1202   1.404       .  A
C1195      C1204   1.405       .  A
C1195      C1196   1.404       .  A
C1196      C1197   1.400       .  A
C1196      H1207   1.084       .  S
C1197      C1198   1.404       .  A
C1197      H1208   1.083       .  S
C1198      C1199   1.404       .  A
C1199      C1200   1.407       .  A
C1199      H1209   1.084       .  S
C1200      C1201   1.408       .  A
C1201      H1210   1.085       .  S
C1202      C1203   1.410       .  A
C1202      H1211   1.083       .  S
C1203      C1204   1.409       .  A
C1204      H1212   1.084       .  S
C1213      N1214   1.364       .  A
C1213      N1218   1.363       .  A
C1213      C1607   1.490       .  S
N1214      C1215   1.359       .  A
C1215      N1216   1.358       .  A
C1215      C1221   1.471       .  S
N1216      C1217   1.357       .  A
C1217      N1218   1.359       .  A
C1217      C1245   1.473       .  S
C1219      N1220   1.364       .  A
C1219      N1224   1.366       .  A
C1219      C1583   1.493       .  S
N1220      C1221   1.359       .  A
C1221      N1222   1.355       .  A
N1222      C1223   1.356       .  A
C1223      N1224   1.361       .  A
C1223      C1227   1.474       .  S
C1225      N1226   1.364       .  A
C1225      N1230   1.363       .  A
C1225      C1556   1.488       .  S
N1226      C1227   1.359       .  A
C1227      N1228   1.359       .  A
N1228      C1229   1.358       .  A
C1229      N1230   1.358       .  A
C1229      C1239   1.475       .  S
C1231      N1232   1.366       .  A
C1231      N1236   1.366       .  A
C1231      C1532   1.496       .  S
N1232      C1233   1.360       .  A
C1233      N1234   1.355       .  A
C1233      C1241   1.473       .  S
N1234      C1235   1.356       .  A
C1235      N1236   1.362       .  A
C1235      C1247   1.474       .  S
C1237      N1242   1.364       .  A
C1237      C1508   1.494       .  S
C1239      N1240   1.357       .  A
C1243      N1248   1.365       .  A
C1243      C1487   1.493       .  S
N1244      C1245   1.360       .  A
C1245      N1246   1.357       .  A
C1247      N1248   1.360       .  A
O1249     Cr1267   2.003       .  S
O1249      C1257   1.266       .  A
O1250     Cr1267   1.992       .  S
O1250      C1251   1.262       .  A
C1251      C1412   1.494       .  S
C1251      O1252   1.268       .  A
O1252     Cr1268   2.015       .  S
O1253     Cr1268   1.978       .  S
O1253      C1254   1.261       .  A
C1254      C1463   1.483       .  S
C1254      O1255   1.267       .  A
O1255     Cr1269   2.009       .  S
O1256     Cr1269   1.981       .  S
O1256      C1257   1.261       .  A
C1257      C1439   1.482       .  S
O1258     Cr1267   1.990       .  S
O1258      C1266   1.262       .  A
O1259     Cr1267   2.004       .  S
O1259      C1260   1.266       .  A
C1260      C1580   1.481       .  S
C1260      O1261   1.260       .  A
O1261     Cr1268   1.978       .  S
O1262     Cr1268   2.013       .  S
O1262      C1263   1.267       .  A
C1263      C1484   1.490       .  S
C1263      O1264   1.262       .  A
O1264     Cr1269   1.987       .  S
O1265     Cr1269   2.004       .  S
O1265      C1266   1.266       .  A
C1266      C1511   1.489       .  S
Cr1267     O1270   1.779       .  S
Cr1268     O1270   1.777       .  S
Cr1269     O1270   1.778       .  S
C1271      N1272   1.365       .  A
C1271      N1276   1.365       .  A
C1271      C1388   1.494       .  S
N1272      C1273   1.361       .  A
C1273      N1274   1.357       .  A
C1273      C1303   1.474       .  S
N1274      C1275   1.356       .  A
C1275      N1276   1.360       .  A
C1275      C1281   1.474       .  S
C1277      N1278   1.364       .  A
C1277      C1436   1.489       .  S
C1279      C1285   1.474       .  S
N1280      C1281   1.358       .  A
C1283      N1284   1.366       .  A
C1283      N1288   1.366       .  A
C1283      C1364   1.494       .  S
N1284      C1285   1.362       .  A
C1285      N1286   1.356       .  A
N1286      C1287   1.356       .  A
C1287      N1288   1.360       .  A
C1287      C1293   1.474       .  S
C1289      N1294   1.365       .  A
C1289      C1460   1.492       .  S
N1290      C1291   1.359       .  A
C1291      N1292   1.358       .  A
C1291      C1299   1.476       .  S
C1293      N1294   1.360       .  A
C1295      N1296   1.363       .  A
C1295      N1300   1.366       .  A
C1295      C1343   1.492       .  S
N1296      C1297   1.357       .  A
C1297      N1298   1.358       .  A
C1297      C1305   1.473       .  S
N1298      C1299   1.358       .  A
C1299      N1300   1.362       .  A
C1301      N1302   1.366       .  A
C1301      N1306   1.366       .  A
C1301      C1415   1.497       .  S
N1302      C1303   1.361       .  A
C1303      N1304   1.356       .  A
N1304      C1305   1.355       .  A
C1305      N1306   1.362       .  A
O1307     Cr1325   1.981       .  S
O1307      C1315   1.260       .  A
O1308     Cr1325   2.007       .  S
O1308      C1309   1.266       .  A
C1309      C1340   1.485       .  S
C1309      O1310   1.262       .  A
O1310     Cr1326   1.983       .  S
O1311     Cr1326   2.004       .  S
O1311      C1312   1.265       .  A
C1312      C1391   1.489       .  S
C1312      O1313   1.263       .  A
O1313     Cr1327   1.992       .  S
O1314     Cr1327   2.002       .  S
O1314      C1315   1.266       .  A
C1315      C1367   1.483       .  S
O1316     Cr1325   2.008       .  S
O1316      C1324   1.267       .  A
O1317     Cr1325   1.980       .  S
O1317      C1318   1.261       .  A
C1318      C1604   1.482       .  S
C1318      O1319   1.266       .  A
O1319     Cr1326   2.007       .  S
O1320     Cr1326   1.981       .  S
O1320      C1321   1.262       .  A
C1321      C1559   1.481       .  S
C1321      O1322   1.266       .  A
O1322     Cr1327   2.002       .  S
O1323     Cr1327   1.993       .  S
O1323      C1324   1.263       .  A
C1324      C1535   1.491       .  S
Cr1325     O1328   1.775       .  S
Cr1326     O1328   1.774       .  S
Cr1327     O1328   1.776       .  S
C1329      C1330   1.400       .  A
C1329      C1334   1.405       .  A
C1329      H1345   1.083       .  S
C1330      C1331   1.403       .  A
C1330      H1346   1.084       .  S
C1331      C1341   1.404       .  A
C1331      C1332   1.412       .  A
C1332      C1338   1.411       .  A
C1332      C1333   1.415       .  A
C1333      C1335   1.412       .  A
C1333      C1334   1.410       .  A
C1334      C1342   1.404       .  A
C1335      C1344   1.407       .  A
C1335      C1336   1.404       .  A
C1336      C1337   1.401       .  A
C1336      H1347   1.084       .  S
C1337      C1338   1.404       .  A
C1337      H1348   1.083       .  S
C1338      C1339   1.406       .  A
C1339      C1340   1.408       .  A
C1339      H1349   1.084       .  S
C1340      C1341   1.409       .  A
C1341      H1350   1.085       .  S
C1342      C1343   1.411   1_554  A
C1342      H1351   1.083       .  S
C1343      C1344   1.409   1_556  A
C1344      H1352   1.084   1_554  S
C1353      C1354   1.398       .  A
C1353      C1358   1.402       .  A
C1353      H1369   1.084       .  S
C1354      C1355   1.404       .  A
C1354      H1370   1.083       .  S
C1355      C1365   1.404       .  A
C1356      C1362   1.411       .  A
C1356      C1357   1.414       .  A
C1357      C1359   1.412       .  A
C1359      C1368   1.408       .  A
C1359      C1360   1.404       .  A
C1360      C1361   1.402       .  A
C1360      H1371   1.083       .  S
C1361      C1362   1.405       .  A
C1361      H1372   1.083       .  S
C1362      C1363   1.409       .  A
C1363      H1373   1.084   1_554  S
C1364      C1365   1.410   1_556  A
C1365      H1374   1.083       .  S
C1366      C1367   1.407       .  A
C1367      C1368   1.409       .  A
C1368      H1376   1.084       .  S
C1377      C1378   1.400       .  A
C1377      C1382   1.404       .  A
C1377      H1393   1.084       .  S
C1378      C1379   1.404       .  A
C1378      H1394   1.083       .  S
C1379      C1389   1.406       .  A
C1379      C1380   1.411       .  A
C1380      C1381   1.416       .  A
C1381      C1382   1.410       .  A
C1382      C1390   1.404       .  A
C1383      C1384   1.404       .  A
C1384      C1385   1.401       .  A
C1384      H1395   1.083       .  S
C1385      C1386   1.405       .  A
C1385      H1396   1.083       .  S
C1386      C1387   1.407       .  A
C1387      C1388   1.411   1_554  A
C1387      H1397   1.084   1_554  S
C1389      H1398   1.083       .  S
C1390      C1391   1.410       .  A
C1390      H1399   1.084       .  S
C1391      C1392   1.409       .  A
C1401      C1402   1.403       .  A
C1401      C1406   1.406       .  A
C1401      H1417   1.083       .  S
C1402      C1403   1.405       .  A
C1402      H1418   1.084       .  S
C1403      C1413   1.411       .  A
C1403      C1404   1.412       .  A
C1404      C1410   1.411       .  A
C1404      C1405   1.418       .  A
C1405      C1407   1.411       .  A
C1405      C1406   1.411       .  A
C1406      C1414   1.410       .  A
C1407      C1416   1.406       .  A
C1407      C1408   1.404       .  A
C1408      C1409   1.400       .  A
C1408      H1419   1.084       .  S
C1409      C1410   1.404       .  A
C1409      H1420   1.083       .  S
C1410      C1411   1.407       .  A
C1411      C1412   1.410       .  A
C1411      H1421   1.084       .  S
C1412      C1413   1.411       .  A
C1413      H1422   1.084       .  S
C1414      C1415   1.413       .  A
C1414      H1423   1.083       .  S
C1415      C1416   1.410       .  A
C1416      H1424   1.084       .  S
C1425      C1426   1.398       .  A
C1425      C1430   1.403       .  A
C1425      H1441   1.084       .  S
C1426      C1427   1.404       .  A
C1426      H1442   1.083       .  S
C1427      C1437   1.404       .  A
C1427      C1428   1.411       .  A
C1428      C1434   1.410       .  A
C1428      C1429   1.413       .  A
C1429      C1431   1.412       .  A
C1429      C1430   1.411       .  A
C1430      C1438   1.402       .  A
C1431      C1440   1.406       .  A
C1431      C1432   1.404       .  A
C1432      C1433   1.400       .  A
C1432      H1443   1.083       .  S
C1433      C1434   1.404       .  A
C1433      H1444   1.084   1_565  S
C1434      C1435   1.405       .  A
C1435      C1436   1.410       .  A
C1435      H1445   1.084   1_565  S
C1436      C1437   1.409       .  A
C1437      H1446   1.083       .  S
C1438      C1439   1.407       .  A
C1438      H1447   1.085       .  S
C1439      C1440   1.408       .  A
C1440      H1448   1.084       .  S
C1449      C1450   1.399       .  A
C1449      C1454   1.403       .  A
C1450      C1451   1.404       .  A
C1451      C1461   1.404       .  A
C1451      C1452   1.410       .  A
C1452      C1458   1.411       .  A
C1452      C1453   1.414       .  A
C1453      C1455   1.411       .  A
C1453      C1454   1.412       .  A
C1454      C1462   1.404       .  A
C1455      C1464   1.405       .  A
C1455      C1456   1.404       .  A
C1456      C1457   1.400       .  A
C1456      H1467   1.083       .  S
C1457      C1458   1.404       .  A
C1457      H1468   1.084       .  S
C1458      C1459   1.406       .  A
C1459      C1460   1.410       .  A
C1459      H1469   1.084       .  S
C1460      C1461   1.410       .  A
C1462      C1463   1.408       .  A
C1462      H1471   1.085       .  S
C1463      C1464   1.408       .  A
C1464      H1472   1.084       .  S
C1473      C1474   1.401       .  A
C1473      C1478   1.404       .  A
C1473      H1489   1.084   1_565  S
C1474      C1475   1.404       .  A
C1474      H1490   1.083       .  S
C1475      C1485   1.408       .  A
C1475      C1476   1.411       .  A
C1476      C1482   1.411       .  A
C1476      C1477   1.416       .  A
C1477      C1479   1.411       .  A
C1477      C1478   1.411       .  A
C1478      C1486   1.407       .  A
C1479      C1488   1.406       .  A
C1479      C1480   1.404       .  A
C1480      C1481   1.400       .  A
C1480      H1491   1.083       .  S
C1481      C1482   1.404       .  A
C1481      H1492   1.084       .  S
C1482      C1483   1.406       .  A
C1483      C1484   1.410       .  A
C1483      H1493   1.084       .  S
C1484      C1485   1.409       .  A
C1485      H1494   1.084       .  S
C1486      C1487   1.410       .  A
C1486      H1495   1.084   1_565  S
C1487      C1488   1.410       .  A
C1488      H1496   1.083       .  S
C1497      C1498   1.399       .  A
C1497      C1502   1.403       .  A
C1497      H1513   1.084       .  S
C1498      C1499   1.404       .  A
C1498      H1514   1.083   1_565  S
C1499      C1509   1.405       .  A
C1499      C1500   1.411       .  A
C1500      C1506   1.410       .  A
C1500      C1501   1.416       .  A
C1501      C1503   1.412       .  A
C1501      C1502   1.410       .  A
C1502      C1510   1.403       .  A
C1503      C1512   1.410       .  A
C1503      C1504   1.405       .  A
C1504      C1505   1.402       .  A
C1504      H1515   1.083       .  S
C1505      C1506   1.405       .  A
C1505      H1516   1.083       .  S
C1506      C1507   1.408       .  A
C1507      C1508   1.412       .  A
C1507      H1517   1.084       .  S
C1508      C1509   1.410       .  A
C1509      H1518   1.083   1_565  S
C1510      C1511   1.408       .  A
C1510      H1519   1.084       .  S
C1511      C1512   1.410       .  A
C1512      H1520   1.084       .  S
C1521      C1522   1.399       .  A
C1521      C1526   1.404       .  A
C1521      H1537   1.083       .  S
C1522      C1523   1.404       .  A
C1522      H1538   1.084       .  S
C1523      C1533   1.405       .  A
C1523      C1524   1.411       .  A
C1524      C1525   1.417       .  A
C1525      C1527   1.413   1_655  A
C1525      C1526   1.410       .  A
C1526      C1534   1.404       .  A
C1527      C1536   1.411   1_455  A
C1528      C1529   1.403       .  A
C1528      H1539   1.084       .  S
C1529      C1530   1.406       .  A
C1529      H1540   1.083       .  S
C1530      C1531   1.410       .  A
C1531      C1532   1.412       .  A
C1531      H1541   1.083       .  S
C1533      H1542   1.084       .  S
C1534      C1535   1.409       .  A
C1534      H1543   1.084       .  S
C1535      C1536   1.410       .  A
C1536      H1544   1.084   1_655  S
C1545      C1546   1.399       .  A
C1545      C1550   1.403       .  A
C1545      H1561   1.084       .  S
C1546      C1547   1.404       .  A
C1546      H1562   1.083       .  S
C1547      C1557   1.404       .  A
C1548      C1554   1.411       .  A
C1548      C1549   1.413       .  A
C1549      C1551   1.412       .  A
C1551      C1560   1.405       .  A
C1551      C1552   1.404       .  A
C1552      C1553   1.400       .  A
C1552      H1563   1.083       .  S
C1553      C1554   1.404       .  A
C1553      H1564   1.084       .  S
C1554      C1555   1.404       .  A
C1555      H1565   1.084       .  S
C1556      C1557   1.409       .  A
C1557      H1566   1.083       .  S
C1558      C1559   1.408       .  A
C1559      C1560   1.407       .  A
C1560      H1568   1.084       .  S
C1569      C1570   1.400       .  A
C1569      C1574   1.405       .  A
C1569      H1585   1.083       .  S
C1570      C1571   1.404       .  A
C1570      H1586   1.084       .  S
C1571      C1581   1.405       .  A
C1571      C1572   1.412       .  A
C1572      C1578   1.411       .  A
C1572      C1573   1.414       .  A
C1573      C1575   1.411       .  A
C1573      C1574   1.411       .  A
C1574      C1582   1.406       .  A
C1575      C1584   1.404       .  A
C1575      C1576   1.404       .  A
C1576      C1577   1.399       .  A
C1576      H1587   1.083       .  S
C1577      C1578   1.403       .  A
C1577      H1588   1.084       .  S
C1578      C1579   1.402       .  A
C1579      C1580   1.407       .  A
C1579      H1589   1.084       .  S
C1580      C1581   1.408       .  A
C1581      H1590   1.084       .  S
C1582      C1583   1.410       .  A
C1582      H1591   1.084       .  S
C1583      C1584   1.410       .  A
C1584      H1592   1.083       .  S
C1593      C1594   1.400       .  A
C1593      C1598   1.404       .  A
C1593      H1609   1.083       .  S
C1594      C1595   1.403       .  A
C1594      H1610   1.084       .  S
C1595      C1605   1.404       .  A
C1595      C1596   1.412       .  A
C1596      C1602   1.411       .  A
C1596      C1597   1.413       .  A
C1597      C1599   1.411       .  A
C1597      C1598   1.410       .  A
C1598      C1606   1.404       .  A
C1599      C1608   1.405       .  A
C1599      C1600   1.404       .  A
C1600      C1601   1.400       .  A
C1600      H1611   1.084       .  S
C1601      C1602   1.404       .  A
C1601      H1612   1.083       .  S
C1602      C1603   1.404       .  A
C1603      C1604   1.407       .  A
C1603      H1613   1.084       .  S
C1604      C1605   1.408       .  A
C1605      H1614   1.085       .  S
C1606      C1607   1.410       .  A
C1606      H1615   1.083       .  S
C1607      C1608   1.409       .  A
C1608      H1616   1.084       .  S
