geometry optimzed in LAMMPS
_audit_creation_date              2020-11-30 
_audit_creation_method            'lammps2cif' 
_symmetry_space_group_name_H-M    'P1' 
_symmetry_Int_Tables_number       1 
_symmetry_cell_setting            triclinic 
loop_ 
_symmetry_equiv_pos_as_xyz 
  x,y,z 
_cell_length_a                    27.71574005 
_cell_length_b                    27.48737703524124 
_cell_length_c                    27.454569721077625 
_cell_angle_alpha                 89.53491635836278 
_cell_angle_beta                  89.87326667903875 
_cell_angle_gamma                 90.53152494382611 
loop_ 
_atom_site_label 
_atom_site_type_symbol 
_atom_site_fract_x 
_atom_site_fract_y 
_atom_site_fract_z 
_atom_site_charge 
O1          O  0.46680741  0.15946941  0.11167609    -0.84800
O2          O  0.42128111  0.07809305  0.13305598    -0.81800
C3          C  0.40646753  0.04075279  0.15413733     0.98700
O4          O  0.40650880  0.03897361  0.20076117    -0.81900
O5          O  0.50231307  0.05683902  0.23373327    -0.84500
C6          C  0.53861275  0.07936308  0.24992416     1.03200
O7          O  0.53934905  0.12586621  0.25094344    -0.77300
O8          O  0.53037857  0.15755285  0.15995137    -0.77500
C9          C  0.51243700  0.15360275  0.11853873     1.03200
O10         O  0.39229722  0.20629682  0.17935351    -0.84800
O11         O  0.34865762  0.12403592  0.19876469    -0.81800
C12         C  0.34442083  0.12151499  0.24533649     0.98700
O13         O  0.38005334  0.11218826  0.27134093    -0.81900
O14         O  0.46984646  0.12307181  0.30718232    -0.84500
C15         C  0.47484390  0.16903497  0.31138635     1.03200
O16         O  0.46316609  0.19573596  0.27652726    -0.77300
O17         O  0.46488556  0.23536762  0.18371747    -0.77400
C18         C  0.41988181  0.24193283  0.17880716     1.03100
Cr19       Cr  0.41001333  0.14179279  0.15863389     1.93700
Cr20       Cr  0.44001448  0.08552113  0.24989385     1.93200
Cr21       Cr  0.49611013  0.17629842  0.21737714     1.39100
O22         O  0.44933343  0.13357640  0.20751586    -1.22500
O23         O  0.07771722  0.21783715  0.35471518    -0.84800
O24         O  0.16334556  0.18023687  0.37051651    -0.81800
C25         C  0.20331001  0.17390053  0.38985602     0.98700
O26         O  0.20722739  0.17392158  0.43632492    -0.81900
O27         O  0.18120902  0.26628161  0.46955263    -0.84500
C28         C  0.15918130  0.29997906  0.49043855     1.03200
O29         O  0.11320019  0.29634912  0.49427632    -0.77300
O30         O  0.08525414  0.28313152  0.40010861    -0.77500
C31         C  0.08313400  0.26422766  0.35879582     1.03200
O32         O  0.04047416  0.14189458  0.42574949    -0.84800
O33         O  0.12639872  0.10381034  0.43978422    -0.81800
C34         C  0.13247267  0.10026271  0.48595517     0.98700
O35         O  0.14155489  0.13697470  0.51083269    -0.81900
O36         O  0.12007667  0.22433308  0.54738161    -0.84500
C37         C  0.07404303  0.22317202  0.55256865     1.03200
O38         O  0.04841582  0.21282598  0.51669780    -0.77300
O39         O  0.01013902  0.21385433  0.42293465    -0.77400
C40         C  0.00484217  0.16804313  0.41926113     1.03100
Cr41       Cr  0.10247008  0.16345111  0.40064106     1.93700
Cr42       Cr  0.15990595  0.20061636  0.48806980     1.93200
Cr43       Cr  0.06660757  0.24875580  0.45822706     1.39100
O44         O  0.11056727  0.20440836  0.44814061    -1.22500
O45         O  0.22560840  0.36332412  0.13860678    -0.84800
O46         O  0.13040037  0.39875207  0.17126028    -0.81800
C47         C  0.14662449  0.40447371  0.21243958     0.98700
O48         O  0.17556462  0.43937115  0.21937392    -0.81900
O49         O  0.26095982  0.47984708  0.19620810    -0.84500
C50         C  0.29769046  0.49156031  0.17168657     1.03200
O51         O  0.29761639  0.48934210  0.12514196    -0.77300
O52         O  0.27651082  0.39904697  0.08540325    -0.77500
C53         C  0.26814508  0.36787365  0.11929654     1.03200
O54         O  0.19119152  0.38134015  0.04873400    -0.84800
O55         O  0.11762104  0.44984154  0.08740944    -0.81800
C56         C  0.10828874  0.49142717  0.10720130     0.98700
O57         O  0.13110859  0.50703656  0.14462425    -0.81900
O58         O  0.22451749  0.55366685  0.13597504    -0.84500
C59         C  0.23138821  0.55895212  0.09058048     1.03200
O60         O  0.21813407  0.52596705  0.06380007    -0.77300
O61         O  0.20175591  0.45020218  0.02003526    -0.77400
C62         C  0.17951558  0.41081520  0.01731734     1.03100
Cr63       Cr  0.16855871  0.40170293  0.11248688     1.93700
Cr64       Cr  0.19685237  0.49225737  0.17069085     1.93200
Cr65       Cr  0.24735515  0.46456355  0.07588820     1.39100
O66         O  0.20536927  0.45236023  0.12148504    -1.22500
O67         O  0.96126390  0.39250818  0.90701665    -0.84800
O68         O  0.94720213  0.46350701  0.85033699    -0.81800
C69         C  0.92738635  0.49385869  0.82486638     0.98700
O70         O  0.92062647  0.48186763  0.78093622    -0.81900
O71         O  0.01776028  0.44680286  0.77332161    -0.84500
C72         C  0.05228290  0.41832249  0.76644689     1.03200
O73         O  0.04826328  0.37265987  0.77598757    -0.77300
O74         O  0.02349104  0.36107928  0.86943037    -0.77500
C75         C  0.00604825  0.38321314  0.90473205     1.03200
O76         O  0.88356668  0.34028288  0.85901931    -0.84800
O77         O  0.86038736  0.40891357  0.79747380    -0.81800
C78         C  0.86044918  0.39506154  0.75243143     0.98700
O79         O  0.89824024  0.39527490  0.72816988    -0.81900
O80         O  0.98753349  0.36991789  0.70976010    -0.84500
C81         C  0.98508664  0.32388921  0.71311036     1.03200
O82         O  0.97092759  0.30421561  0.75191192    -0.77300
O83         O  0.94455346  0.29128313  0.84779008    -0.77400
C84         C  0.90032313  0.29861904  0.85920996     1.03100
Cr85       Cr  0.91487256  0.40120121  0.85042220     1.93700
Cr86       Cr  0.95634822  0.42164297  0.75179320     1.93200
Cr87       Cr  0.99384291  0.33499195  0.81141081     1.39100
O88         O  0.95378841  0.38360434  0.80438287    -1.22500
O89         O  0.79940887  0.85642581  0.34877598    -0.84800
O90         O  0.86462054  0.92208192  0.29174809    -0.81800
C91         C  0.83295768  0.91004837  0.26257447     0.98700
O92         O  0.79401874  0.93194757  0.26794558    -0.81900
O93         O  0.72120440  0.95410691  0.31774706    -0.84500
C94         C  0.69193309  0.97152665  0.34664661     1.03200
O95         O  0.70318114  0.97071963  0.39158693    -0.77300
O96         O  0.75168173  0.87838100  0.41150026    -0.77500
C97         C  0.76101223  0.85066507  0.37561109     1.03200
O98         O  0.85925832  0.88024624  0.42402644    -0.84800
O99         O  0.88958999  0.96963093  0.37570937    -0.81800
C100        C  0.88267947  0.01122194  0.35485832     0.98700
O101        O  0.85085979  0.01594134  0.32110697    -0.81900
O102        O  0.76270229  0.04144430  0.36448613    -0.84500
C103        C  0.76712441  0.04653577  0.41068106     1.10400
O104        O  0.78617881  0.01393903  0.43557920    -0.77300
O105        O  0.82395490  0.93355828  0.46719826    -0.77400
C106        C  0.85759356  0.90386694  0.46188347     1.03100
Cr107      Cr  0.84962120  0.90974660  0.36048957     1.93700
Cr108      Cr  0.78435646  0.98478346  0.31976321     1.93200
Cr109      Cr  0.76780530  0.94757781  0.42299909     1.39100
O110        O  0.80067537  0.94788344  0.36859749    -1.22500
O111        O  0.04849399  0.89308182  0.60667449    -0.84800
O112        O  0.12600548  0.94446301  0.66200704    -0.81800
C113        C  0.09768428  0.97724435  0.65196173     0.98700
O114        O  0.06014534  0.97777533  0.67743108    -0.81900
O115        O  0.98196391  0.93902366  0.71344829    -0.84500
C116        C  0.95072704  0.91082807  0.73073339     1.03200
O117        O  0.95971789  0.86507772  0.73028207    -0.77300
O118        O  0.99867323  0.83459660  0.63698587    -0.77500
C119        C  0.00832760  0.86832456  0.60571350     1.03200
O120        O  0.09843433  0.81288589  0.62831442    -0.84800
O121        O  0.14465633  0.86109439  0.71131345    -0.81800
C122        C  0.14509983  0.88607754  0.75078000     0.98700
O123        O  0.11661343  0.92209807  0.75716609    -0.81900
O124        O  0.02559954  0.89088227  0.79489356    -0.84500
C125        C  0.02588930  0.84488496  0.80221220     1.03200
O126        O  0.04483997  0.81898122  0.77105318    -0.77300
O127        O  0.07366082  0.77771936  0.69237680    -0.77400
C128        C  0.10197941  0.77829974  0.65666263     1.03100
Cr129      Cr  0.10141069  0.87820916  0.65491471     1.93700
Cr130      Cr  0.04816614  0.93000238  0.73413953     1.93200
Cr131      Cr  0.02025188  0.82670662  0.70590311     1.39100
O132        O  0.05553640  0.87846725  0.69803810    -1.22500
O133        O  0.36052891  0.89979442  0.95996772    -0.84800
O134        O  0.44210843  0.86987013  0.92721657    -0.81800
C135        C  0.47918325  0.84787731  0.91647436     0.98700
O136        O  0.47719177  0.80156171  0.91270741    -0.81900
O137        O  0.44603029  0.77230317  0.00732464    -0.84500
C138        C  0.41964807  0.75489899  0.04068809     1.03200
O139        O  0.37393180  0.75878331  0.03784691    -0.77300
O140        O  0.35309942  0.85239684  0.02439303    -0.77500
C141        C  0.36177412  0.89349190  0.00665008     1.03200
O142        O  0.31629936  0.83692543  0.88038828    -0.84800
O143        O  0.39893353  0.80703942  0.84583899    -0.81800
C144        C  0.39783647  0.76012646  0.84247165     0.98700
O145        O  0.40204746  0.73436056  0.87970602    -0.81900
O146        O  0.37890550  0.70211939  0.96913610    -0.84500
C147        C  0.33288230  0.70098459  0.97194399     1.03200
O148        O  0.30935240  0.73693184  0.95752541    -0.77300
O149        O  0.27995720  0.83317270  0.95054824    -0.77400
C150        C  0.27883589  0.84037729  0.90469941     1.03100
Cr151      Cr  0.37947839  0.85034982  0.90563334     1.93700
Cr152      Cr  0.42351207  0.75604825  0.94221357     1.93200
Cr153      Cr  0.33164133  0.79580438  0.98935362     1.39100
O154        O  0.37822251  0.80101557  0.94567406    -1.22500
O155        O  0.29606784  0.63884792  0.62972225    -0.84800
O156        O  0.37982487  0.59120489  0.67665609    -0.81800
C157        C  0.35358769  0.59985838  0.71206181     0.98700
O158        O  0.31620067  0.57389886  0.71526579    -0.81900
O159        O  0.23728593  0.53497780  0.68331621    -0.84500
C160        C  0.20502994  0.51522809  0.65896704     1.03200
O161        O  0.21009417  0.51311670  0.61306230    -0.77300
O162        O  0.24279139  0.60570394  0.57714741    -0.77500
C163        C  0.25386939  0.63788060  0.60918546     1.03200
O164        O  0.33589656  0.61438164  0.54569471    -0.84800
O165        O  0.39359885  0.53550588  0.59421952    -0.81800
C166        C  0.39606226  0.49674244  0.62161790     0.98700
O167        O  0.37163434  0.49434534  0.66134319    -0.81900
O168        O  0.28096758  0.45011206  0.63907040    -0.84500
C169        C  0.27815023  0.43840168  0.59400222     1.03200
O170        O  0.28646730  0.46982449  0.56166754    -0.77300
O171        O  0.31431672  0.54825610  0.51512963    -0.77400
C172        C  0.33905476  0.58627949  0.51127083     1.03100
Cr173      Cr  0.34925719  0.59194881  0.61172217     1.93700
Cr174      Cr  0.30282822  0.51456745  0.67200222     1.93200
Cr175      Cr  0.26541643  0.53649734  0.56949115     1.39100
O176        O  0.30547851  0.54689893  0.61755389    -1.22500
O177        O  0.53855354  0.59357562  0.37625438    -0.84800
O178        O  0.63494679  0.57277169  0.36939798    -0.81800
C179        C  0.61442066  0.53228231  0.36073386     0.98700
O180        O  0.58433339  0.52648227  0.32328142    -0.81900
O181        O  0.48803544  0.55689494  0.29608099    -0.84500
C182        C  0.45400188  0.58199414  0.27994636     1.03200
O183        O  0.45931136  0.62808083  0.27614195    -0.77300
O184        O  0.50290335  0.66313623  0.36133817    -0.77500
C185        C  0.50483884  0.62347955  0.38484291     1.03200
O186        O  0.61158631  0.66721936  0.35871376    -0.84800
O187        O  0.64672080  0.61812975  0.27941268    -0.81800
C188        C  0.64406928  0.60119542  0.23648727     0.98700
O189        O  0.60960348  0.57330291  0.22537495    -0.81900
O190        O  0.51652438  0.60119441  0.20402656    -0.84500
C191        C  0.51491901  0.64721309  0.19380047     1.03200
O192        O  0.53152371  0.67875492  0.22257971    -0.77300
O193        O  0.57550191  0.71492158  0.30568862    -0.77400
C194        C  0.60972305  0.70689335  0.33575322     1.03100
Cr195      Cr  0.59401725  0.60520754  0.32877008     1.93700
Cr196      Cr  0.54946186  0.56642395  0.26274875     1.93200
Cr197      Cr  0.51856409  0.67043347  0.29154986     1.39100
O198        O  0.55658865  0.62250539  0.28885266    -1.22500
O199        O  0.65285768  0.38977546  0.55805816    -0.84800
O200        O  0.56733963  0.35984776  0.58999537    -0.81800
C201        C  0.52862756  0.33698354  0.58565864     0.98700
O202        O  0.52901831  0.29061502  0.58305585    -0.81900
O203        O  0.56740373  0.27432159  0.49366817    -0.84500
C204        C  0.59245297  0.25808093  0.45985602     1.03200
O205        O  0.63812985  0.25746858  0.46435129    -0.77300
O206        O  0.65434112  0.34930309  0.48943104    -0.77500
C207        C  0.65312712  0.38884718  0.51104631     1.03200
O208        O  0.69299865  0.31513136  0.62888995    -0.84800
O209        O  0.60965596  0.28547579  0.66045230    -0.81800
C210        C  0.60823280  0.23868828  0.65832781     0.98700
O211        O  0.59861088  0.21803992  0.61908249    -0.81900
O212        O  0.63072903  0.19615538  0.52957044    -0.84500
C213        C  0.67702059  0.19444877  0.52925959     1.03200
O214        O  0.70132360  0.23009415  0.54409122    -0.77300
O215        O  0.72809201  0.32818613  0.55980922    -0.77400
C216        C  0.72923735  0.32849177  0.60609376     1.03100
Cr217      Cr  0.63046581  0.33492800  0.60671211     1.93700
Cr218      Cr  0.58399874  0.24763015  0.55691850     1.93200
Cr219      Cr  0.67783504  0.29122363  0.51778083     1.39100
O220        O  0.63051804  0.29119953  0.56117397    -1.22500
O221        O  0.71666777  0.14758615  0.91407413    -0.84800
O222        O  0.69054944  0.11605574  0.82849190    -0.81800
C223        C  0.68258137  0.09223595  0.79128152     0.98700
O224        O  0.68438851  0.04559100  0.79381704    -0.81900
O225        O  0.77751634  0.02427245  0.83046477    -0.84500
C226        C  0.81102005  0.00907272  0.85696461     1.03200
O227        O  0.80568328  0.01097885  0.90337155    -0.77300
O228        O  0.78401090  0.10626305  0.91378421    -0.77500
C229        C  0.76307167  0.14609857  0.91198779     1.03200
O230        O  0.64254388  0.07807759  0.95439580    -0.84800
O231        O  0.61365248  0.04758976  0.86744532    -0.81800
C232        C  0.61326932  0.00074231  0.86861136     0.98700
O233        O  0.65160870  0.97775584  0.86873052    -0.81900
O234        O  0.73753105  0.95360451  0.90273944    -0.84500
C235        C  0.73464013  0.95553400  0.94959115     1.03200
O236        O  0.72304839  0.99401229  0.96987083    -0.77300
O237        O  0.71141002  0.09092493  0.98960847    -0.77400
C238        C  0.66527650  0.09168400  0.99073433     1.03100
Cr239      Cr  0.66805171  0.09469217  0.89115239     1.93700
Cr240      Cr  0.71307663  0.00332336  0.85091423     1.93200
Cr241      Cr  0.75346753  0.05045955  0.94164529     1.39100
O242        O  0.71103095  0.04941469  0.89439845    -1.22500
O243        O  0.85037799  0.69385624  0.14338681    -0.84800
O244        O  0.80816218  0.62391430  0.07652668    -0.81800
C245        C  0.77356978  0.65213061  0.07735887     0.98700
O246        O  0.77690535  0.69014501  0.05136202    -0.81900
O247        O  0.82172936  0.76680656  0.00549374    -0.84500
C248        C  0.83063265  0.79802992  0.03691955     1.03200
O249        O  0.86706864  0.79351469  0.06528821    -0.77300
O250        O  0.91681539  0.73355187  0.13045543    -0.77500
C251        C  0.87777963  0.73052544  0.15352186     1.03200
O252        O  0.94034734  0.65255970  0.11289497    -0.84800
O253        O  0.89634671  0.60380720  0.03227813    -0.81800
C254        C  0.87236487  0.60255065  0.99218933     0.98700
O255        O  0.83495782  0.62797627  0.98775826    -0.81900
O256        O  0.88002260  0.71177919  0.94826286    -0.84500
C257        C  0.91210881  0.74515436  0.95100084     1.03200
O258        O  0.92823838  0.75851197  0.99133328    -0.77300
O259        O  0.97274522  0.68813793  0.05193032    -0.77400
C260        C  0.97329863  0.65251782  0.08222720     1.03100
Cr261      Cr  0.87372228  0.64597681  0.08956842     1.93700
Cr262      Cr  0.83141960  0.69827058  0.00178649     1.93200
Cr263      Cr  0.91904211  0.74062741  0.05904802     1.39100
O264        O  0.87493703  0.69553947  0.04880708    -1.22500
C265        C  0.75286777  0.91682588  0.98209439    -0.04800
C266        C  0.79109516  0.92670483  0.01533189    -0.01900
C267        C  0.81321769  0.88824505  0.04123861     0.03100
C268        C  0.79702152  0.84030861  0.03390355    -0.04800
C269        C  0.75165553  0.83319040  0.00965464    -0.01900
C270        C  0.73079776  0.87108732  0.98260834     0.03100
C271        C  0.80880060  0.97606840  0.02185829     0.37800
C272        C  0.72721126  0.78624090  0.00921865     0.37700
C273        C  0.68662691  0.86324746  0.95518393     0.36200
C274        C  0.85351276  0.89783183  0.07338539     0.36200
N275        N  0.65132360  0.85737610  0.93347207    -0.38700
N276        N  0.88574933  0.90579705  0.09891431    -0.38700
N277        N  0.70628735  0.74967423  0.00743013    -0.38100
N278        N  0.82245782  0.01551117  0.02764193    -0.38100
C279        C  0.62231657  0.20451736  0.69921205    -0.04800
C280        C  0.66829567  0.20909511  0.72052681    -0.01900
C281        C  0.69166861  0.16801356  0.74092063     0.03100
C282        C  0.66648589  0.12326761  0.74889774    -0.04800
C283        C  0.61853299  0.11988254  0.73159266    -0.01900
C284        C  0.59744666  0.15929384  0.70537817     0.03100
C285        C  0.68991438  0.25687699  0.72554707     0.37800
C286        C  0.58969795  0.07710307  0.74326782     0.37700
C287        C  0.54874509  0.15424168  0.68676633     0.36200
C288        C  0.74190414  0.17226356  0.75523843     0.36200
N289        N  0.50981919  0.15039788  0.67201981    -0.38700
N290        N  0.78209437  0.17553959  0.76617290    -0.38700
N291        N  0.56627788  0.04329167  0.75289294    -0.38100
N292        N  0.70609940  0.29520360  0.73209931    -0.38100
C293        C  0.62251289  0.49451198  0.39913326    -0.04800
C294        C  0.60893069  0.50401569  0.44842548    -0.01900
C295        C  0.62162845  0.47183223  0.48676520     0.03100
C296        C  0.65119956  0.43187198  0.47721596    -0.04800
C297        C  0.67078774  0.42706829  0.42930967    -0.01900
C298        C  0.65429823  0.45616558  0.39024117     0.03100
C299        C  0.58388677  0.54815619  0.46120948     0.37800
C300        C  0.70944092  0.39294259  0.42019623     0.37700
C301        C  0.67190763  0.44801867  0.34121288     0.36200
C302        C  0.60381236  0.47968899  0.53575257     0.36200
N303        N  0.68596701  0.44122921  0.30213622    -0.38700
N304        N  0.58950517  0.48604256  0.57482910    -0.38700
N305        N  0.74051817  0.36620065  0.41277845    -0.38100
N306        N  0.56526766  0.58333284  0.47393817    -0.38100
C307        C  0.73346403  0.64009882  0.11225398    -0.04800
C308        C  0.70987446  0.67660584  0.13900493    -0.01900
C309        C  0.68160812  0.66411744  0.18043444     0.03100
C310        C  0.67813072  0.61518672  0.19677603    -0.04800
C311        C  0.69914481  0.57850742  0.16844206    -0.01900
C312        C  0.72588880  0.59053628  0.12626528     0.03100
C313        C  0.71721477  0.72766117  0.12685789     0.37800
C314        C  0.69315195  0.52766993  0.18261079     0.37700
C315        C  0.74621179  0.55131505  0.09793848     0.36200
C316        C  0.65589514  0.70203458  0.20556113     0.36200
N317        N  0.76286971  0.51975452  0.07595459    -0.38700
N318        N  0.63596362  0.73376381  0.22417071    -0.38700
N319        N  0.68814460  0.48725007  0.19349387    -0.38100
N320        N  0.72300933  0.76865321  0.11909472    -0.38100
C321        C  0.42601128  0.45191435  0.60811683    -0.04800
C322        C  0.42103521  0.40660142  0.63455767    -0.01900
C323        C  0.45122959  0.36622176  0.62438227     0.03100
C324        C  0.48423651  0.36818626  0.58558529    -0.04800
C325        C  0.48355800  0.40956649  0.55456286    -0.01900
C326        C  0.45758142  0.45196830  0.56732398     0.03100
C327        C  0.38529919  0.40019347  0.67279464     0.37800
C328        C  0.50925189  0.40776928  0.50854005     0.37700
C329        C  0.46681471  0.49641046  0.54028333     0.36200
C330        C  0.44935838  0.32279615  0.65474155     0.36200
N331        N  0.47543465  0.53237641  0.51984832    -0.38700
N332        N  0.44796700  0.28797963  0.67870324    -0.38700
N333        N  0.52856169  0.40554247  0.47121053    -0.38100
N334        N  0.35687519  0.39431411  0.70329760    -0.38100
C335        C  0.46428471  0.61205881  0.41943165    -0.04800
C336        C  0.44291000  0.65041132  0.44553360    -0.01900
C337        C  0.39863980  0.64336437  0.47007761     0.03100
C338        C  0.37624987  0.59662514  0.47234935    -0.04800
C339        C  0.39627068  0.55885960  0.44424900    -0.01900
C340        C  0.44082543  0.56593725  0.41948865     0.03100
C341        C  0.46767085  0.69707128  0.44921446     0.37800
C342        C  0.37081213  0.51288695  0.43968317     0.37700
C343        C  0.46313943  0.52465474  0.39618398     0.36200
C344        C  0.37564444  0.68533633  0.49175494     0.36200
N345        N  0.48072841  0.49097030  0.37872477    -0.38700
N346        N  0.35736317  0.71885895  0.50879661    -0.38700
N347        N  0.35000319  0.47657412  0.43481837    -0.38100
N348        N  0.48755710  0.73412220  0.45246088    -0.38100
C349        C  0.48611768  0.66732650  0.15305094    -0.04800
C350        C  0.50154157  0.66304806  0.10447898    -0.01900
C351        C  0.47909606  0.69086041  0.06751881     0.03100
C352        C  0.44156871  0.72381575  0.07915157    -0.04800
C353        C  0.42401751  0.72541950  0.12720670    -0.01900
C354        C  0.44713781  0.69878516  0.16413387     0.03100
C355        C  0.54266379  0.63292264  0.09318015     0.37800
C356        C  0.38320507  0.75588319  0.13935145     0.37700
C357        C  0.43232502  0.70748162  0.21407717     0.36200
C358        C  0.49368823  0.68401883  0.01721739     0.36200
N359        N  0.41981058  0.71680309  0.25308266    -0.38700
N360        N  0.50496883  0.67835892  0.97710563    -0.38700
N361        N  0.35052608  0.77991887  0.14919330    -0.38100
N362        N  0.57584506  0.60923385  0.08427838    -0.38100
C363        C  0.52100560  0.88119878  0.90538622    -0.04800
C364        C  0.54006531  0.88475860  0.85773851    -0.01900
C365        C  0.56585852  0.92729325  0.84259933     0.03100
C366        C  0.56989663  0.96853878  0.87347875    -0.04800
C367        C  0.54759293  0.96606756  0.91927911    -0.01900
C368        C  0.52740009  0.92183450  0.93656056     0.03100
C369        C  0.53215348  0.84538158  0.82383988     0.37800
C370        C  0.54479304  0.00951605  0.94857811     0.37700
C371        C  0.51349688  0.91832188  0.98728316     0.36200
C372        C  0.58880129  0.92867858  0.79507751     0.36200
N373        N  0.50411597  0.91663565  0.02828412    -0.38700
N374        N  0.60724221  0.92974721  0.75721030    -0.38700
N375        N  0.54063879  0.04453239  0.97119423    -0.38100
N376        N  0.52581896  0.81415994  0.79650674    -0.38100
C377        C  0.39155105  0.73046025  0.79672349    -0.04800
C378        C  0.42588044  0.69358389  0.78711859    -0.01900
C379        C  0.41328224  0.65113568  0.76046433     0.03100
C380        C  0.36530397  0.64288184  0.74460730    -0.04800
C381        C  0.33096281  0.67969925  0.75404749    -0.01900
C382        C  0.34479784  0.72401880  0.77718727     0.03100
C383        C  0.47407039  0.69802976  0.80724838     0.37800
C384        C  0.28069858  0.67141915  0.74218252     0.37700
C385        C  0.31088753  0.76347918  0.78054351     0.36200
C386        C  0.44923398  0.61397932  0.75247969     0.36200
N387        N  0.28434413  0.79565866  0.78138585    -0.38700
N388        N  0.47766559  0.58408352  0.74619030    -0.38700
N389        N  0.24020920  0.66459221  0.73433249    -0.38100
N390        N  0.51244581  0.70105369  0.82354167    -0.38100
C391        C  0.93299700  0.77200820  0.90837029    -0.04800
C392        C  0.94521334  0.74837957  0.86522982    -0.01900
C393        C  0.97690310  0.77120547  0.83157038     0.03100
C394        C  0.99543078  0.81950887  0.84003504    -0.04800
C395        C  0.97911128  0.84455890  0.88127042    -0.01900
C396        C  0.94698557  0.82160989  0.91411844     0.03100
C397        C  0.92231728  0.70231405  0.85356730     0.37800
C398        C  0.99578731  0.89379719  0.89083698     0.37700
C399        C  0.92651960  0.85053379  0.95276607     0.36200
C400        C  0.98786140  0.74462067  0.78740442     0.36200
N401        N  0.91060233  0.87488177  0.98277777    -0.38700
N402        N  0.99605727  0.72280446  0.75251356    -0.38700
N403        N  0.00904778  0.93300651  0.89869194    -0.38100
N404        N  0.90271259  0.66661565  0.84297735    -0.38100
C405        C  0.91002501  0.93408854  0.75987514    -0.04800
C406        C  0.90331080  0.98557558  0.75774844    -0.01900
C407        C  0.87639002  0.01017453  0.79385584     0.03100
C408        C  0.85205341  0.98428793  0.83121049    -0.04800
C409        C  0.85668476  0.93289741  0.83241043    -0.01900
C410        C  0.88440586  0.90806727  0.79666031     0.03100
C411        C  0.92139034  0.01396392  0.71665219     0.37800
C412        C  0.83217897  0.90445282  0.86968690     0.37700
C413        C  0.88295969  0.85546301  0.79570439     0.36200
C414        C  0.87375852  0.06293749  0.79282942     0.36200
N415        N  0.88010251  0.81345059  0.79439279    -0.38700
N416        N  0.87196910  0.10502060  0.79256174    -0.38700
N417        N  0.81392168  0.87967253  0.89864174    -0.38100
N418        N  0.93504620  0.03707173  0.68395955    -0.38100
C419        C  0.21518320  0.67410580  0.62266199    -0.04800
C420        C  0.16533864  0.66022979  0.62425304    -0.01900
C421        C  0.12936990  0.69287937  0.64009155     0.03100
C422        C  0.14109160  0.74181646  0.64854031    -0.04800
C423        C  0.19012874  0.75701953  0.64297343    -0.01900
C424        C  0.22697676  0.72297085  0.63310086     0.03100
C425        C  0.14909848  0.61414253  0.60536063     0.37800
C426        C  0.20342368  0.80808869  0.64436885     0.37700
C427        C  0.27689171  0.73929749  0.63082938     0.36200
C428        C  0.07930412  0.67702003  0.64370480     0.36200
N429        N  0.31668235  0.75237011  0.62932694    -0.38700
N430        N  0.03940910  0.66447054  0.64652299    -0.38700
N431        N  0.21597251  0.84837723  0.64381638    -0.38100
N432        N  0.13376865  0.57913282  0.58809484    -0.38100
C433        C  0.17859029  0.87399570  0.79167017    -0.04800
C434        C  0.20806201  0.91093130  0.81153798    -0.01900
C435        C  0.23742196  0.90122523  0.85238687     0.03100
C436        C  0.23584572  0.85517439  0.87608628    -0.04800
C437        C  0.20490586  0.81879248  0.85747026    -0.01900
C438        C  0.17740729  0.82763760  0.81479865     0.03100
C439        C  0.21080702  0.95828595  0.78778632     0.37800
C440        C  0.20515268  0.77059736  0.87946613     0.37700
C441        C  0.14986506  0.78794531  0.79397921     0.36200
C442        C  0.27325786  0.93721828  0.86651463     0.36200
N443        N  0.12911102  0.75492649  0.77825533    -0.38700
N444        N  0.30253173  0.96584029  0.87605337    -0.38700
N445        N  0.20561160  0.73212458  0.89688436    -0.38100
N446        N  0.21301594  0.99601141  0.76886155    -0.38100
C447        C  0.72306609  0.81274709  0.36515208    -0.04800
C448        C  0.73522252  0.76585824  0.34940213    -0.01900
C449        C  0.69851402  0.73050946  0.34186128     0.03100
C450        C  0.64880800  0.74339903  0.34430130    -0.04800
C451        C  0.63669362  0.79021412  0.35947166    -0.01900
C452        C  0.67323938  0.82303043  0.37355439     0.03100
C453        C  0.78562521  0.75249974  0.34539918     0.37800
C454        C  0.58623875  0.80321000  0.36517099     0.37700
C455        C  0.65855791  0.86379840  0.40276245     0.36200
C456        C  0.71304019  0.68061694  0.33462432     0.36200
N457        N  0.64632324  0.89389693  0.42904126    -0.38700
N458        N  0.72727283  0.64139421  0.33053992    -0.38700
N459        N  0.54614740  0.81363656  0.36982245    -0.38100
N460        N  0.82578639  0.74175781  0.34238623    -0.38100
C461        C  0.84105992  0.86634494  0.22998805    -0.04800
C462        C  0.88813294  0.85775284  0.21236218    -0.01900
C463        C  0.90089350  0.81219917  0.19248614     0.03100
C464        C  0.86606773  0.77382864  0.18658209    -0.04800
C465        C  0.82008345  0.78129954  0.20746634    -0.01900
C466        C  0.80669775  0.82777109  0.22617255     0.03100
C467        C  0.92412800  0.89653474  0.21404403     0.37800
C468        C  0.79049521  0.73920387  0.21832240     0.37700
C469        C  0.75742447  0.83539409  0.24175552     0.36200
C470        C  0.95169975  0.80443566  0.18212626     0.36200
N471        N  0.71776076  0.84172297  0.25309938    -0.38700
N472        N  0.99227153  0.79837998  0.17447038    -0.38700
N473        N  0.76890942  0.70481148  0.22988069    -0.38100
N474        N  0.95279761  0.92740144  0.21524690    -0.38100
C475        C  0.89601235  0.89676827  0.49885631    -0.04800
C476        C  0.88365355  0.88129872  0.54599924    -0.01900
C477        C  0.92003029  0.87072991  0.58021611     0.03100
C478        C  0.96992994  0.87843663  0.56852555    -0.04800
C479        C  0.98205254  0.89487264  0.52115255    -0.01900
C480        C  0.94552115  0.90245059  0.48613596     0.03100
C481        C  0.83313731  0.87339274  0.55838084     0.37800
C482        C  0.03225318  0.90241427  0.50743053     0.37700
C483        C  0.95997603  0.91501795  0.43678693     0.36200
C484        C  0.90462639  0.85039092  0.62668512     0.36200
N485        N  0.97403962  0.92410838  0.39800599    -0.38700
N486        N  0.89052021  0.83293382  0.66254011    -0.38700
N487        N  0.07215890  0.90883773  0.49642472    -0.38100
N488        N  0.79287151  0.86700993  0.56791866    -0.38100
C489        C  0.74302401  0.08531648  0.43905002    -0.04800
C490        C  0.75329629  0.13472517  0.43051351    -0.01900
C491        C  0.73372266  0.17029346  0.46160716     0.03100
C492        C  0.70230468  0.15662915  0.50068819    -0.04800
C493        C  0.69314114  0.10723561  0.50999658    -0.01900
C494        C  0.71336070  0.07168155  0.47964665     0.03100
C495        C  0.78565913  0.14863980  0.39108142     0.37800
C496        C  0.66518107  0.09306511  0.55270760     0.37700
C497        C  0.70367668  0.02084043  0.49119515     0.36200
C498        C  0.74670470  0.22091392  0.45333026     0.36200
N499        N  0.69611447  0.98052305  0.50129166    -0.38700
N500        N  0.75790725  0.26109697  0.44687784    -0.38700
N501        N  0.64342050  0.08211894  0.58719265    -0.38100
N502        N  0.81158131  0.15940795  0.35959875    -0.38100
C503        C  0.09283373  0.43781974  0.73777359    -0.04800
C504        C  0.08501680  0.45357712  0.68921480    -0.01900
C505        C  0.12304719  0.47400207  0.66197402     0.03100
C506        C  0.16573843  0.48891859  0.68582964    -0.04800
C507        C  0.17293466  0.47361994  0.73537438    -0.01900
C508        C  0.13788062  0.44480380  0.75933427     0.03100
C509        C  0.03787691  0.44985225  0.66651792     0.37800
C510        C  0.21731572  0.48392947  0.76160123     0.37700
C511        C  0.14876049  0.42047072  0.80501688     0.36200
C512        C  0.11857348  0.47583999  0.60935281     0.36200
N513        N  0.15796017  0.39948588  0.84045070    -0.38700
N514        N  0.11468663  0.47556808  0.56736001    -0.38700
N515        N  0.25239154  0.49213523  0.78291976    -0.38100
N516        N  0.00085985  0.44849807  0.64712177    -0.38100
C517        C  0.79537835  0.18941204  0.90596053    -0.04800
C518        C  0.84459392  0.18673999  0.92121397    -0.01900
C519        C  0.87936376  0.22043997  0.90367227     0.03100
C520        C  0.86507369  0.25962808  0.87402270    -0.04800
C521        C  0.81463666  0.26525731  0.86373195    -0.01900
C522        C  0.78065990  0.22958528  0.87821803     0.03100
C523        C  0.85980849  0.14989387  0.95602296     0.37800
C524        C  0.79589311  0.30808212  0.83929874     0.37700
C525        C  0.73061820  0.23391895  0.86305633     0.36200
C526        C  0.92947511  0.21593236  0.91833702     0.36200
N527        N  0.69090669  0.23748402  0.85075451    -0.38700
N528        N  0.96937241  0.21232936  0.93001975    -0.38700
N529        N  0.77874458  0.34203725  0.82143522    -0.38100
N530        N  0.87223998  0.12068192  0.98379572    -0.38100
C531        C  0.90692281  0.53534168  0.85255065    -0.04800
C532        C  0.86129358  0.52832547  0.87485371    -0.01900
C533        C  0.85149337  0.54719942  0.92185224     0.03100
C534        C  0.88681944  0.57462822  0.94745527    -0.04800
C535        C  0.93036519  0.58602768  0.92264327    -0.01900
C536        C  0.94025070  0.56647561  0.87594757     0.03100
C537        C  0.82431581  0.50036911  0.85010527     0.37800
C538        C  0.96341581  0.62153988  0.94255679     0.37700
C539        C  0.98468944  0.57937674  0.85085973     0.36200
C540        C  0.80457362  0.53810962  0.94386412     0.36200
N541        N  0.01979678  0.59064808  0.83065117    -0.38700
N542        N  0.76692231  0.53098526  0.96095382    -0.38700
N543        N  0.98993559  0.65099365  0.95628606    -0.38100
N544        N  0.79356024  0.47886718  0.83135586    -0.38100
C545        C  0.81858725  0.37746769  0.72337711    -0.04800
C546        C  0.81960348  0.32819260  0.70786778    -0.01900
C547        C  0.79455681  0.31310543  0.66572311     0.03100
C548        C  0.76930825  0.34699219  0.63690573    -0.04800
C549        C  0.76892502  0.39628359  0.65156871    -0.01900
C550        C  0.79278643  0.41122598  0.69473779     0.03100
C551        C  0.84837299  0.29270162  0.73391655     0.37800
C552        C  0.74354162  0.43186907  0.62228382     0.37700
C553        C  0.79232925  0.46193126  0.70876638     0.36200
C554        C  0.79282401  0.26188480  0.65303760     0.36200
N555        N  0.79167187  0.50244605  0.71986144    -0.38700
N556        N  0.79078235  0.22105927  0.64317010    -0.38700
N557        N  0.72387721  0.46077936  0.59898049    -0.38100
N558        N  0.87094754  0.26330951  0.75353914    -0.38100
C559        C  0.13266123  0.40541456  0.99004804    -0.04800
C560        C  0.09504703  0.37359994  0.00745450    -0.01900
C561        C  0.05043134  0.37020406  0.98265981     0.03100
C562        C  0.04181789  0.39928019  0.94148219    -0.04800
C563        C  0.07719973  0.43390289  0.92684122    -0.01900
C564        C  0.12268527  0.43599164  0.94982665     0.03100
C565        C  0.10076402  0.34469475  0.05144487     0.37800
C566        C  0.06753741  0.46679899  0.88669637     0.37700
C567        C  0.16006134  0.46784850  0.92995609     0.36200
C568        C  0.01366149  0.33554838  0.99846069     0.36200
N569        N  0.19001406  0.49274575  0.91368997    -0.38700
N570        N  0.98420299  0.30804003  0.01095711    -0.38700
N571        N  0.06121556  0.49393636  0.85503459    -0.38100
N572        N  0.10419051  0.32169165  0.08673270    -0.38100
C573        C  0.00654003  0.60815232  0.08213663    -0.04800
C574        C  0.05097329  0.60711845  0.05666911    -0.01900
C575        C  0.08051218  0.56485690  0.05800081     0.03100
C576        C  0.06920536  0.52461767  0.08886560    -0.04800
C577        C  0.02461383  0.52466250  0.11319818    -0.01900
C578        C  0.99282445  0.56463836  0.10860708     0.03100
C579        C  0.06822183  0.65026237  0.03122865     0.37800
C580        C  0.01194390  0.48348619  0.14440012     0.37700
C581        C  0.94604897  0.55978645  0.13226765     0.36200
C582        C  0.12170353  0.56258317  0.02578383     0.36200
N583        N  0.90894001  0.55552717  0.15136242    -0.38700
N584        N  0.15306473  0.56206742  0.99793427    -0.38700
N585        N  0.00203215  0.45070987  0.16931599    -0.38100
N586        N  0.08255023  0.68457933  0.01099833    -0.38100
C587        C  0.33831610  0.51437606  0.19854536    -0.04800
C588        C  0.38523040  0.49581558  0.19556776    -0.01900
C589        C  0.42244455  0.51608069  0.22428781     0.03100
C590        C  0.41325150  0.55657016  0.25514256    -0.04800
C591        C  0.36630847  0.57536056  0.25746715    -0.01900
C592        C  0.32908634  0.55456342  0.22933694     0.03100
C593        C  0.39526494  0.45601142  0.16273910     0.37800
C594        C  0.35595512  0.61545468  0.28982010     0.37700
C595        C  0.28153585  0.57618727  0.23098211     0.36200
C596        C  0.47036809  0.49547855  0.22060897     0.36200
N597        N  0.24395788  0.59410698  0.23270923    -0.38700
N598        N  0.50833280  0.47854415  0.21759655    -0.38700
N599        N  0.34775056  0.64731166  0.31577879    -0.38100
N600        N  0.40350276  0.42467285  0.13616908    -0.38100
C601        C  0.26251785  0.59663158  0.06722584    -0.04800
C602        C  0.29740248  0.58160031  0.03211618    -0.01900
C603        C  0.31984037  0.61563184  0.00087939     0.03100
C604        C  0.30843681  0.66497989  0.00434075    -0.04800
C605        C  0.27644524  0.68057599  0.04187248    -0.01900
C606        C  0.25351781  0.64630738  0.07301779     0.03100
C607        C  0.31030328  0.53080714  0.02670750     0.37800
C608        C  0.26765077  0.73185927  0.04979327     0.37700
C609        C  0.21936550  0.66192020  0.10971117     0.36200
C610        C  0.35354290  0.59951600  0.96382035     0.36200
N611        N  0.19217030  0.67424998  0.13906787    -0.38700
N612        N  0.38036306  0.58675108  0.93430631    -0.38700
N613        N  0.26045165  0.77261489  0.05688410    -0.38100
N614        N  0.32148459  0.49076821  0.02100833    -0.38100
C615        C  0.18937664  0.33731455  0.51718656    -0.04800
C616        C  0.23609428  0.34986361  0.49944585    -0.01900
C617        C  0.26942506  0.37555437  0.52894212     0.03100
C618        C  0.25636143  0.39162461  0.57591946    -0.04800
C619        C  0.21197409  0.37522075  0.59520429    -0.01900
C620        C  0.17735768  0.35189256  0.56516140     0.03100
C621        C  0.24897677  0.33972229  0.44931218     0.37800
C622        C  0.20355238  0.37822867  0.64705420     0.37700
C623        C  0.12855583  0.34724388  0.58311440     0.36200
C624        C  0.31834862  0.38413904  0.51188442     0.36200
N625        N  0.08961582  0.34705187  0.59826669    -0.38700
N626        N  0.35780300  0.39010639  0.49909627    -0.38700
N627        N  0.19759560  0.37777465  0.68873086    -0.38100
N628        N  0.25917766  0.33240830  0.40917418    -0.38100
C629        C  0.00448752  0.29350773  0.67371095    -0.04800
C630        C  0.04466408  0.26307148  0.68217843    -0.01900
C631        C  0.06652517  0.23815003  0.64318429     0.03100
C632        C  0.04878523  0.24423489  0.59542020    -0.04800
C633        C  0.00757909  0.27423152  0.58758553    -0.01900
C634        C  0.98547459  0.29811128  0.62667857     0.03100
C635        C  0.06532476  0.25943208  0.73062190     0.37800
C636        C  0.98980413  0.28482799  0.53884220     0.37700
C637        C  0.94360953  0.32850624  0.61845223     0.36200
C638        C  0.10722670  0.20662347  0.65213241     0.36200
N639        N  0.91025567  0.35282845  0.61207428    -0.38700
N640        N  0.13968678  0.18128059  0.65923893    -0.38700
N641        N  0.97554397  0.29374351  0.50028089    -0.38100
N642        N  0.08197742  0.25667711  0.76910805    -0.38100
C643        C  0.90967880  0.05632874  0.37157108    -0.04800
C644        C  0.91418188  0.06708510  0.42200385    -0.01900
C645        C  0.93838715  0.10980889  0.43773238     0.03100
C646        C  0.95997137  0.14203942  0.40393303    -0.04800
C647        C  0.95184424  0.13418036  0.35380742    -0.01900
C648        C  0.92670332  0.09192479  0.33766637     0.03100
C649        C  0.89487990  0.03475340  0.45909450     0.37800
C650        C  0.97172385  0.16854868  0.31862964     0.37700
C651        C  0.92083836  0.08410933  0.28585315     0.36200
C652        C  0.94438712  0.11910093  0.48943851     0.36200
N653        N  0.91615747  0.07804216  0.24445892    -0.38700
N654        N  0.94937076  0.12637966  0.53059243    -0.38700
N655        N  0.98731855  0.19611739  0.29052227    -0.38100
N656        N  0.88091279  0.01148432  0.49150817    -0.38100
C657        C  0.13045100  0.36861634  0.25041554    -0.04800
C658        C  0.13287994  0.31775219  0.24071879    -0.01900
C659        C  0.11291268  0.28307029  0.27349991     0.03100
C660        C  0.09009460  0.29843403  0.31644762    -0.04800
C661        C  0.08266376  0.34926029  0.32301494    -0.01900
C662        C  0.10457938  0.38393779  0.29151034     0.03100
C663        C  0.15701966  0.29970997  0.19770639     0.37800
C664        C  0.05053205  0.36612896  0.36102588     0.37700
C665        C  0.09935612  0.43550339  0.30078149     0.36200
C666        C  0.11685812  0.23151033  0.26303950     0.36200
N667        N  0.09544430  0.47661633  0.30838994    -0.38700
N668        N  0.11986098  0.19051384  0.25438837    -0.38700
N669        N  0.02450320  0.37945888  0.39103322    -0.38100
N670        N  0.17539076  0.28217288  0.16435844    -0.38100
C671        C  0.12805428  0.05459857  0.51547269    -0.04800
C672        C  0.08159562  0.03577811  0.52525616    -0.01900
C673        C  0.07018261  0.01510609  0.57153733     0.03100
C674        C  0.10680725  0.00770635  0.60687718    -0.04800
C675        C  0.15485313  0.02120450  0.59425612    -0.01900
C676        C  0.16511573  0.04489247  0.54942475     0.03100
C677        C  0.04617623  0.03629398  0.48670729     0.37800
C678        C  0.19397840  0.01285414  0.62827217     0.37700
C679        C  0.21391839  0.06170548  0.53901310     0.36200
C680        C  0.02055964  0.00202727  0.58237043     0.36200
N681        N  0.25283905  0.07515852  0.53097498    -0.38700
N682        N  0.98063109  0.99243858  0.59065863    -0.38700
N683        N  0.22546906  0.00614106  0.65503744    -0.38100
N684        N  0.01891490  0.03478126  0.45493181    -0.38100
C685        C  0.38907481  0.00093530  0.12117759    -0.04800
C686        C  0.35979157  0.01273004  0.08017133    -0.01900
C687        C  0.35121711  0.97857868  0.04247464     0.03100
C688        C  0.37310610  0.93250109  0.04382023    -0.04800
C689        C  0.40152775  0.92067660  0.08582841    -0.01900
C690        C  0.40862797  0.95422799  0.12418065     0.03100
C691        C  0.33784791  0.06039595  0.07678913     0.37800
C692        C  0.42656598  0.87488922  0.08968544     0.37700
C693        C  0.43848969  0.94149962  0.16573529     0.36200
C694        C  0.31731458  0.99015157  0.00417971     0.36200
N695        N  0.46235856  0.93149009  0.19880049    -0.38700
N696        N  0.28929003  0.00005553  0.97466930    -0.38700
N697        N  0.44915125  0.84015138  0.09513129    -0.38100
N698        N  0.32059823  0.09849905  0.07390333    -0.38100
C699        C  0.24280268  0.16172461  0.35492362    -0.04800
C700        C  0.25148882  0.19278222  0.31409415    -0.01900
C701        C  0.27783641  0.17632866  0.27311752     0.03100
C702        C  0.29919951  0.13008220  0.27374719    -0.04800
C703        C  0.28844786  0.09819676  0.31333813    -0.01900
C704        C  0.25986588  0.11355735  0.35304421     0.03100
C705        C  0.23359237  0.24217782  0.31444589     0.37800
C706        C  0.30700363  0.04897203  0.31302685     0.37700
C707        C  0.24569519  0.07876540  0.39049486     0.36200
C708        C  0.28155125  0.20606403  0.22955653     0.36200
N709        N  0.23392638  0.05057376  0.41983322    -0.38700
N710        N  0.28306425  0.22863317  0.19382620    -0.38700
N711        N  0.32190026  0.00980139  0.31275015    -0.38100
N712        N  0.21979056  0.28173913  0.31498014    -0.38100
C713        C  0.39612760  0.28880214  0.16668897    -0.04800
C714        C  0.38798521  0.29857069  0.11696875    -0.01900
C715        C  0.34557486  0.32249192  0.10157944     0.03100
C716        C  0.31092756  0.33869959  0.13604911    -0.04800
C717        C  0.32210415  0.33389551  0.18619577    -0.01900
C718        C  0.36435730  0.30906425  0.20129752     0.03100
C719        C  0.42189679  0.28056538  0.08118867     0.37800
C720        C  0.29015205  0.35419056  0.22245746     0.37700
C721        C  0.37419903  0.30218022  0.25272091     0.36200
C722        C  0.33702897  0.32835898  0.04974475     0.36200
N723        N  0.38215444  0.29700972  0.29379776    -0.38700
N724        N  0.33057890  0.33304601  0.00834045    -0.38700
N725        N  0.26468732  0.37037663  0.25145139    -0.38100
N726        N  0.44887841  0.26630005  0.05256713    -0.38100
C727        C  0.63466334  0.10985007  0.03139192    -0.04800
C728        C  0.62051789  0.15929080  0.03209618    -0.01900
C729        C  0.57847382  0.17374790  0.05787839     0.03100
C730        C  0.54794420  0.13867107  0.08046703    -0.04800
C731        C  0.56293111  0.08942612  0.08042043    -0.01900
C732        C  0.60609319  0.07545055  0.05691191     0.03100
C733        C  0.64865127  0.19533867  0.00534724     0.37800
C734        C  0.53506446  0.05260749  0.10630109     0.37700
C735        C  0.62054628  0.02478024  0.05737245     0.36200
C736        C  0.56780604  0.22497912  0.06303605     0.36200
N737        N  0.63223127  0.98446723  0.05751508    -0.38700
N738        N  0.55979730  0.26592384  0.06774914    -0.38700
N739        N  0.51417080  0.02204981  0.12668946    -0.38100
N740        N  0.67079494  0.22446799  0.98410838    -0.38100
C741        C  0.50608500  0.19044976  0.34957136    -0.04800
C742        C  0.50068488  0.17632154  0.39856188    -0.01900
C743        C  0.53130697  0.19635231  0.43410645     0.03100
C744        C  0.56680214  0.23176190  0.42100214    -0.04800
C745        C  0.57362938  0.24460029  0.37199779    -0.01900
C746        C  0.54353034  0.22408780  0.33621894     0.03100
C747        C  0.46201694  0.14316451  0.41280645     0.37800
C748        C  0.61052243  0.28018134  0.35864280     0.37700
C749        C  0.55195738  0.23786418  0.28570646     0.36200
C750        C  0.52626338  0.18008268  0.48435138     0.36200
N751        N  0.55911485  0.24949561  0.24570431    -0.38700
N752        N  0.52211435  0.16689767  0.52430247    -0.38700
N753        N  0.63992480  0.30852693  0.34802363    -0.38100
N754        N  0.43089317  0.11710027  0.42422337    -0.38100
C755        C  0.57722911  0.05148598  0.27456531    -0.04800
C756        C  0.62401460  0.05170682  0.25532882    -0.01900
C757        C  0.66123109  0.02707462  0.27989844     0.03100
C758        C  0.65212570  0.00148605  0.32475703    -0.04800
C759        C  0.60567229  0.00473900  0.34566091    -0.01900
C760        C  0.56788064  0.02731108  0.31943441     0.03100
C761        C  0.63360292  0.07634018  0.20924413     0.37800
C762        C  0.59663297  0.98799137  0.39495611     0.37700
C763        C  0.51909303  0.02521854  0.33868472     0.36200
C764        C  0.70954393  0.03102322  0.25943681     0.36200
N765        N  0.48016114  0.02263911  0.35388552    -0.38700
N766        N  0.74770722  0.03477876  0.24253144    -0.38700
N767        N  0.58784401  0.97692638  0.43478021    -0.38100
N768        N  0.64137793  0.09580713  0.17249393    -0.38100
loop_ 
_geom_bond_atom_site_label_1 
_geom_bond_atom_site_label_2 
_geom_bond_distance 
_geom_bond_site_symmetry_2 
_ccdc_geom_bond_type 
O1          Cr19   2.084       .  S
O1            C9   1.290       .  A
O2          Cr19   1.920       .  S
O2            C3   1.240       .  A
C3            O4   1.281       .  A
C3          C685   1.502       .  S
O4          Cr20   2.081       .  S
O5          Cr20   1.956       .  S
O5            C6   1.260       .  A
C6            O7   1.279       .  A
C6          C755   1.483       .  S
O7          Cr21   2.055       .  S
O8          Cr21   1.915       .  S
O8            C9   1.247       .  A
C9          C730   1.496       .  S
O10         Cr19   1.934       .  S
O10          C18   1.237       .  A
O11         Cr19   2.076       .  S
O11          C12   1.285       .  A
C12          O13   1.247       .  A
C12         C702   1.496       .  S
O13         Cr20   1.916       .  S
O14         Cr20   2.059       .  S
O14          C15   1.276       .  A
C15          O16   1.246       .  A
C15         C741   1.483       .  S
O16         Cr21   1.942       .  S
O17         Cr21   2.060       .  S
O17          C18   1.269       .  A
C18         C713   1.488       .  S
Cr19         O22   1.745       .  S
Cr20         O22   1.770       .  S
Cr21         O22   1.764       .  S
O23         Cr41   2.071       .  S
O23          C31   1.288       .  A
O24         Cr41   1.928       .  S
O24          C25   1.243       .  A
C25          O26   1.281       .  A
C25         C699   1.496       .  S
O26         Cr42   2.074       .  S
O27         Cr42   1.957       .  S
O27          C28   1.256       .  A
C28          O29   1.281       .  A
C28         C615   1.514       .  S
O29         Cr43   2.087       .  S
O30         Cr43   1.915       .  S
O30          C31   1.253       .  A
C31         C660   1.500       .  S
O32         Cr41   1.936       .  S
O32          C40   1.239       .  A
O33         Cr41   2.068       .  S
O33          C34   1.282       .  A
C34          O35   1.247       .  A
C34         C671   1.492       .  S
O35         Cr42   1.917       .  S
O36         Cr42   2.078       .  S
O36          C37   1.284       .  A
C37          O38   1.249       .  A
C37         C632   1.491       .  S
O38         Cr43   1.941       .  S
O39         Cr43   2.074       .  S
O39          C40   1.271       .  A
C40         C646   1.492   1_455  S
Cr41         O44   1.743       .  S
Cr42         O44   1.758       .  S
Cr43         O44   1.755       .  S
O45         Cr63   2.037       .  S
O45          C53   1.296       .  A
O46         Cr63   1.928       .  S
O46          C47   1.228       .  A
C47          O48   1.261       .  A
C47         C657   1.494       .  S
O48         Cr64   2.049       .  S
O49         Cr64   1.943       .  S
O49          C50   1.257       .  A
C50          O51   1.280       .  A
C50         C587   1.484       .  S
O51         Cr65   2.059       .  S
O52         Cr65   1.996       .  S
O52          C53   1.279       .  A
C53         C716   1.508       .  S
O54         Cr63   1.946       .  S
O54          C62   1.225       .  A
O55         Cr63   2.060       .  S
O55          C56   1.298       .  A
C56          O57   1.282       .  A
C56         C576   1.507       .  S
O57         Cr64   2.003       .  S
O58         Cr64   2.072       .  S
O58          C59   1.267       .  A
C59          O60   1.226       .  A
C59         C601   1.483       .  S
O60         Cr65   1.906       .  S
O61         Cr65   2.028       .  S
O61          C62   1.244       .  A
C62         C559   1.507   1_554  S
Cr63         O66   1.738       .  S
Cr64         O66   1.764       .  S
Cr65         O66   1.736       .  S
O67         Cr85   2.033       .  S
O67          C75   1.271   1_655  A
O68         Cr85   1.925       .  S
O68          C69   1.220       .  A
C69          O70   1.267       .  A
C69         C531   1.491       .  S
O70         Cr86   2.100       .  S
O71         Cr86   1.927   1_455  S
O71          C72   1.257       .  A
C72          O73   1.284       .  A
C72         C503   1.466       .  S
O73         Cr87   2.059   1_455  S
O74         Cr87   1.934   1_455  S
O74          C75   1.247       .  A
C75         C562   1.483       .  S
O76         Cr85   1.892       .  S
O76          C84   1.240       .  A
O77         Cr85   2.109       .  S
O77          C78   1.297       .  A
C78          O79   1.240       .  A
C78         C545   1.489       .  S
O79         Cr86   1.879       .  S
O80         Cr86   2.036       .  S
O80          C81   1.269       .  A
C81          O82   1.251       .  A
C81         C629   1.475   1_655  S
O82         Cr87   1.951       .  S
O83         Cr87   2.062       .  S
O83          C84   1.283       .  A
C84         C520   1.497       .  S
Cr85         O88   1.735       .  S
Cr86         O88   1.777       .  S
Cr87         O88   1.755       .  S
O89        Cr107   2.040       .  S
O89          C97   1.301       .  A
O90        Cr107   1.958       .  S
O90          C91   1.234       .  A
C91          O92   1.250       .  A
C91         C461   1.522       .  S
O92        Cr108   2.060       .  S
O93        Cr108   1.937       .  S
O93          C94   1.236       .  A
C94          O95   1.273       .  A
C94         C758   1.506   1_565  S
O95        Cr109   2.092       .  S
O96        Cr109   1.978       .  S
O96          C97   1.278       .  A
C97         C447   1.504       .  S
O98        Cr107   1.938       .  S
O98         C106   1.231       .  A
O99        Cr107   2.023       .  S
O99         C100   1.290   1_565  A
C100        O101   1.287       .  A
C100        C643   1.517       .  S
O101       Cr108   2.026   1_545  S
O102       Cr108   2.083   1_545  S
O102        C103   1.283       .  A
C103        O104   1.245       .  A
C103        C489   1.488       .  S
O104       Cr109   1.923   1_545  S
O105       Cr109   2.014       .  S
O105        C106   1.254       .  A
C106        C475   1.486       .  S
Cr107       O110   1.737       .  S
Cr108       O110   1.738       .  S
Cr109       O110   1.748       .  S
O111       Cr129   2.021       .  S
O111        C119   1.300       .  A
O112       Cr129   1.950       .  S
O112        C113   1.231       .  A
C113        O114   1.253       .  A
C113        C674   1.508   1_565  S
O114       Cr130   2.053       .  S
O115       Cr130   1.939   1_655  S
O115        C116   1.247       .  A
C116        O117   1.284       .  A
C116        C405   1.529       .  S
O117       Cr131   2.101   1_655  S
O118       Cr131   1.996   1_655  S
O118        C119   1.284   1_655  A
C119        C478   1.503   1_455  S
O120       Cr129   1.945       .  S
O120        C128   1.229       .  A
O121       Cr129   2.016       .  S
O121        C122   1.288       .  A
C122        O123   1.285       .  A
C122        C433   1.495       .  S
O123       Cr130   2.014       .  S
O124       Cr130   2.070       .  S
O124        C125   1.279       .  A
C125        O126   1.237       .  A
C125        C394   1.500   1_455  S
O126       Cr131   1.926       .  S
O127       Cr131   2.046       .  S
O127        C128   1.255       .  A
C128        C422   1.501       .  S
Cr129       O132   1.735       .  S
Cr130       O132   1.749       .  S
Cr131       O132   1.731       .  S
O133       Cr151   2.095       .  S
O133        C141   1.292   1_556  A
O134       Cr151   1.909       .  S
O134        C135   1.233       .  A
C135        O136   1.279       .  A
C135        C363   1.500       .  S
O136       Cr152   2.092       .  S
O137       Cr152   1.949   1_554  S
O137        C138   1.259       .  A
C138        O139   1.275       .  A
C138        C352   1.487       .  S
O139       Cr153   2.047   1_554  S
O140       Cr153   1.926   1_554  S
O140        C141   1.248       .  A
C141        C688   1.517       .  S
O142       Cr151   1.918       .  S
O142        C150   1.238       .  A
O143       Cr151   2.108       .  S
O143        C144   1.294       .  A
C144        O145   1.245       .  A
C144        C377   1.513       .  S
O145       Cr152   1.915       .  S
O146       Cr152   2.053       .  S
O146        C147   1.278       .  A
C147        O148   1.251       .  A
C147        C604   1.483   1_556  S
O148       Cr153   1.942       .  S
O149       Cr153   2.064       .  S
O149        C150   1.273       .  A
C150        C436   1.487       .  S
Cr151       O154   1.739       .  S
Cr152       O154   1.773       .  S
Cr153       O154   1.764       .  S
O155       Cr173   2.030       .  S
O155        C163   1.300       .  A
O156       Cr173   1.976       .  S
O156        C157   1.239       .  A
C157        O158   1.255       .  A
C157        C380   1.521       .  S
O158       Cr174   2.057       .  S
O159       Cr174   1.931       .  S
O159        C160   1.241       .  A
C160        O161   1.270       .  A
C160        C506   1.492       .  S
O161       Cr175   2.039       .  S
O162       Cr175   2.021       .  S
O162        C163   1.288       .  A
C163        C419   1.517       .  S
O164       Cr173   1.947       .  S
O164        C172   1.229       .  A
O165       Cr173   2.048       .  S
O165        C166   1.302       .  A
C166        O167   1.283       .  A
C166        C321   1.539       .  S
O167       Cr174   2.013       .  S
O168       Cr174   2.081       .  S
O168        C169   1.283       .  A
C169        O170   1.253       .  A
C169        C618   1.504       .  S
O170       Cr175   1.942       .  S
O171       Cr175   2.036       .  S
O171        C172   1.248       .  A
C172        C338   1.507       .  S
Cr173       O176   1.732       .  S
Cr174       O176   1.734       .  S
Cr175       O176   1.750       .  S
O177       Cr195   2.035       .  S
O177        C185   1.273       .  A
O178       Cr195   1.826       .  S
O178        C179   1.270       .  A
C179        O180   1.335       .  A
C179        C293   1.492       .  S
O180       Cr196   2.213       .  S
O181       Cr196   1.946       .  S
O181        C182   1.253       .  A
C182        O183   1.277       .  A
C182        C590   1.491       .  S
O183       Cr197   2.051       .  S
O184       Cr197   1.972       .  S
O184        C185   1.264       .  A
C185        C335   1.499       .  S
O186       Cr195   1.956       .  S
O186        C194   1.257       .  A
O187       Cr195   2.017       .  S
O187        C188   1.273       .  A
C188        O189   1.259       .  A
C188        C310   1.486       .  S
O189       Cr196   1.962       .  S
O190       Cr196   2.084       .  S
O190        C191   1.295       .  A
C191        O192   1.262       .  A
C191        C349   1.482       .  S
O192       Cr197   1.938       .  S
O193       Cr197   2.028       .  S
O193        C194   1.278       .  A
C194        C450   1.490       .  S
Cr195       O198   1.584       .  S
Cr196       O198   1.715       .  S
Cr197       O198   1.697       .  S
O199       Cr217   2.095       .  S
O199        C207   1.291       .  A
O200       Cr217   1.939       .  S
O200        C201   1.245       .  A
C201        O202   1.277       .  A
C201        C324   1.506       .  S
O202       Cr218   2.068       .  S
O203       Cr218   1.938       .  S
O203        C204   1.246       .  A
C204        O205   1.272       .  A
C204        C744   1.474       .  S
O205       Cr219   2.058       .  S
O206       Cr219   1.892       .  S
O206        C207   1.243       .  A
C207        C296   1.499       .  S
O208       Cr217   1.920       .  S
O208        C216   1.234       .  A
O209       Cr217   2.075       .  S
O209        C210   1.288       .  A
C210        O211   1.250       .  A
C210        C279   1.512       .  S
O211       Cr218   1.930       .  S
O212       Cr218   2.071       .  S
O212        C213   1.284       .  A
C213        O214   1.255       .  A
C213        C492   1.487       .  S
O214       Cr219   1.942       .  S
O215       Cr219   2.075       .  S
O215        C216   1.271       .  A
C216        C548   1.486       .  S
Cr217       O220   1.741       .  S
Cr218       O220   1.756       .  S
Cr219       O220   1.770       .  S
O221       Cr239   2.076       .  S
O221        C229   1.288       .  A
O222       Cr239   1.914       .  S
O222        C223   1.237       .  A
C223        O224   1.285       .  A
C223        C282   1.508       .  S
O224       Cr240   2.105       .  S
O225       Cr240   1.951       .  S
O225        C226   1.254       .  A
C226        O227   1.284       .  A
C226        C408   1.509   1_545  S
O227       Cr241   2.102       .  S
O228       Cr241   1.900       .  S
O228        C229   1.245       .  A
C229        C517   1.491       .  S
O230       Cr239   1.923       .  S
O230        C238   1.240       .  A
O231       Cr239   2.087       .  S
O231        C232   1.288       .  A
C232        O233   1.241   1_545  A
C232        C366   1.491   1_545  S
O233       Cr240   1.898   1_565  S
O234       Cr240   2.084   1_565  S
O234        C235   1.290       .  A
C235        O236   1.244       .  A
C235        C265   1.477       .  S
O236       Cr241   1.916   1_565  S
O237       Cr241   2.091       .  S
O237        C238   1.279       .  A
C238        C727   1.493   1_556  S
Cr239       O242   1.733       .  S
Cr240       O242   1.749       .  S
Cr241       O242   1.753       .  S
O243       Cr261   2.092       .  S
O243        C251   1.289       .  A
O244       Cr261   1.945       .  S
O244        C245   1.239       .  A
C245        O246   1.263       .  A
C245        C307   1.499       .  S
O246       Cr262   2.041       .  S
O247       Cr262   1.909       .  S
O247        C248   1.245       .  A
C248        O249   1.283       .  A
C248        C268   1.498       .  S
O249       Cr263   2.064       .  S
O250       Cr263   1.969       .  S
O250        C251   1.254       .  A
C251        C464   1.539       .  S
O252       Cr261   1.963       .  S
O252        C260   1.241       .  A
O253       Cr261   2.061       .  S
O253        C254   1.288   1_554  A
C254        O255   1.261       .  A
C254        C534   1.509       .  S
O255       Cr262   1.977   1_556  S
O256       Cr262   2.021   1_556  S
O256        C257   1.275       .  A
C257        O258   1.252       .  A
C257        C391   1.492       .  S
O258       Cr263   1.935   1_556  S
O259       Cr263   2.092       .  S
O259        C260   1.280       .  A
C260        C573   1.535   1_655  S
Cr261       O264   1.756       .  S
Cr262       O264   1.770       .  S
Cr263       O264   1.757       .  S
C265        C266   1.425   1_556  A
C265        C270   1.393       .  A
C266        C267   1.415       .  A
C266        C271   1.451       .  S
C267        C268   1.404       .  A
C267        C274   1.449       .  S
C268        C269   1.437       .  A
C269        C270   1.404   1_554  A
C269        C272   1.452       .  S
C270        C273   1.454       .  S
C271        N278   1.157   1_565  T
C272        N277   1.157       .  T
C273        N275   1.158       .  T
C274        N276   1.157       .  T
C279        C280   1.408       .  A
C279        C284   1.424       .  A
C280        C281   1.419       .  A
C280        C285   1.446       .  S
C281        C282   1.424       .  A
C281        C288   1.452       .  S
C282        C283   1.415       .  A
C283        C284   1.426       .  A
C283        C286   1.449       .  S
C284        C287   1.450       .  S
C285        N292   1.157       .  T
C286        N291   1.157       .  T
C287        N289   1.157       .  T
C288        N290   1.157       .  T
C293        C294   1.431       .  A
C293        C298   1.403       .  A
C294        C295   1.417       .  A
C294        C299   1.449       .  S
C295        C296   1.403       .  A
C295        C302   1.450       .  S
C296        C297   1.429       .  A
C297        C298   1.412       .  A
C297        C300   1.453       .  S
C298        C301   1.451       .  S
C299        N306   1.156       .  T
C300        N305   1.156       .  T
C301        N303   1.158       .  T
C302        N304   1.158       .  T
C307        C308   1.413       .  A
C307        C312   1.426       .  A
C308        C309   1.418       .  A
C308        C313   1.452       .  S
C309        C310   1.417       .  A
C309        C316   1.447       .  S
C310        C311   1.408       .  A
C311        C312   1.409       .  A
C311        C314   1.455       .  S
C312        C315   1.452       .  S
C313        N320   1.155       .  T
C314        N319   1.155       .  T
C315        N317   1.160       .  T
C316        N318   1.158       .  T
C321        C322   1.442       .  A
C321        C326   1.420       .  A
C322        C323   1.425       .  A
C322        C327   1.450       .  S
C323        C324   1.403       .  A
C323        C330   1.451       .  S
C324        C325   1.416       .  A
C325        C326   1.421       .  A
C325        C328   1.450       .  S
C326        C329   1.445       .  S
C327        N334   1.158       .  T
C328        N333   1.157       .  T
C329        N331   1.156       .  T
C330        N332   1.157       .  T
C335        C336   1.413       .  A
C335        C340   1.419       .  A
C336        C337   1.410       .  A
C336        C341   1.453       .  S
C337        C338   1.422       .  A
C337        C344   1.454       .  S
C338        C339   1.415       .  A
C339        C340   1.419       .  A
C339        C342   1.448       .  S
C340        C343   1.450       .  S
C341        N348   1.158       .  T
C342        N347   1.157       .  T
C343        N345   1.157       .  T
C344        N346   1.157       .  T
C349        C350   1.406       .  A
C349        C354   1.424       .  A
C350        C351   1.414       .  A
C350        C355   1.449       .  S
C351        C352   1.423       .  A
C351        C358   1.452       .  S
C352        C353   1.406       .  A
C353        C354   1.405       .  A
C353        C356   1.453       .  S
C354        C357   1.453       .  S
C355        N362   1.159       .  T
C356        N361   1.159       .  T
C357        N359   1.156       .  T
C358        N360   1.156   1_554  T
C363        C364   1.412       .  A
C363        C368   1.423       .  A
C364        C365   1.423       .  A
C364        C369   1.449       .  S
C365        C366   1.425       .  A
C365        C372   1.450       .  S
C366        C367   1.401       .  A
C367        C368   1.412       .  A
C367        C370   1.448   1_565  S
C368        C371   1.446       .  S
C369        N376   1.157       .  T
C370        N375   1.156       .  T
C371        N373   1.155   1_556  T
C372        N374   1.157       .  T
C377        C378   1.422       .  A
C377        C382   1.414       .  A
C378        C379   1.423       .  A
C378        C383   1.451       .  S
C379        C380   1.417       .  A
C379        C386   1.451       .  S
C380        C381   1.421       .  A
C381        C382   1.428       .  A
C381        C384   1.448       .  S
C382        C385   1.445       .  S
C383        N390   1.157       .  T
C384        N389   1.157       .  T
C385        N387   1.156       .  T
C386        N388   1.157       .  T
C391        C392   1.398       .  A
C391        C396   1.424       .  A
C392        C393   1.413       .  A
C392        C397   1.450       .  S
C393        C394   1.440       .  A
C393        C400   1.454       .  S
C394        C395   1.406       .  A
C395        C396   1.407       .  A
C395        C398   1.452       .  S
C396        C399   1.449       .  S
C397        N404   1.157       .  T
C398        N403   1.158   1_655  T
C399        N401   1.155       .  T
C400        N402   1.157       .  T
C405        C406   1.430       .  A
C405        C410   1.418       .  A
C406        C407   1.419   1_565  A
C406        C411   1.452   1_565  S
C407        C408   1.410   1_545  A
C407        C414   1.453       .  S
C408        C409   1.420       .  A
C409        C410   1.427       .  A
C409        C412   1.447       .  S
C410        C413   1.447       .  S
C411        N418   1.156       .  T
C412        N417   1.155       .  T
C413        N415   1.158       .  T
C414        N416   1.158       .  T
C419        C420   1.430       .  A
C419        C424   1.411       .  A
C420        C421   1.418       .  A
C420        C425   1.441       .  S
C421        C422   1.402       .  A
C421        C428   1.454       .  S
C422        C423   1.426       .  A
C423        C424   1.419       .  A
C423        C426   1.449       .  S
C424        C427   1.451       .  S
C425        N432   1.154       .  T
C426        N431   1.158       .  T
C427        N429   1.157       .  T
C428        N430   1.157       .  T
C433        C434   1.411       .  A
C433        C438   1.419       .  A
C434        C435   1.412       .  A
C434        C439   1.452       .  S
C435        C436   1.419       .  A
C435        C442   1.451       .  S
C436        C437   1.411       .  A
C437        C438   1.420       .  A
C437        C440   1.452       .  S
C438        C441   1.448       .  S
C439        N446   1.157       .  T
C440        N445   1.157       .  T
C441        N443   1.157       .  T
C442        N444   1.157       .  T
C447        C448   1.406       .  A
C447        C452   1.431       .  A
C448        C449   1.417       .  A
C448        C453   1.452       .  S
C449        C450   1.427       .  A
C449        C456   1.448       .  S
C450        C451   1.399       .  A
C451        C452   1.407       .  A
C451        C454   1.455       .  S
C452        C455   1.444       .  S
C453        N460   1.157       .  T
C454        N459   1.157       .  T
C455        N457   1.155       .  T
C456        N458   1.158       .  T
C461        C462   1.413       .  A
C461        C466   1.423       .  A
C462        C463   1.417       .  A
C462        C467   1.454       .  S
C463        C464   1.433       .  A
C463        C470   1.454       .  S
C464        C465   1.414       .  A
C465        C466   1.432       .  A
C465        C468   1.441       .  S
C466        C469   1.448       .  S
C467        N474   1.158       .  T
C468        N473   1.156       .  T
C469        N471   1.157       .  T
C470        N472   1.157       .  T
C475        C476   1.400       .  A
C475        C480   1.422       .  A
C476        C477   1.410       .  A
C476        C481   1.454       .  S
C477        C478   1.433       .  A
C477        C484   1.451       .  S
C478        C479   1.412       .  A
C479        C480   1.413       .  A
C479        C482   1.453   1_655  S
C480        C483   1.450       .  S
C481        N488   1.157       .  T
C482        N487   1.157       .  T
C483        N485   1.158       .  T
C484        N486   1.157       .  T
C489        C490   1.403       .  A
C489        C494   1.429       .  A
C490        C491   1.414       .  A
C490        C495   1.451       .  S
C491        C492   1.426       .  A
C491        C498   1.450       .  S
C492        C493   1.400       .  A
C493        C494   1.409       .  A
C493        C496   1.453       .  S
C494        C497   1.453       .  S
C495        N502   1.158       .  T
C496        N501   1.158       .  T
C497        N499   1.157   1_545  T
C498        N500   1.157       .  T
C503        C504   1.416       .  A
C503        C508   1.395       .  A
C504        C505   1.402       .  A
C504        C509   1.452       .  S
C505        C506   1.413       .  A
C505        C512   1.451       .  S
C506        C507   1.435       .  A
C507        C508   1.407       .  A
C507        C510   1.453       .  S
C508        C511   1.450       .  S
C509        N516   1.157       .  T
C510        N515   1.157       .  T
C511        N513   1.157       .  T
C512        N514   1.158       .  T
C517        C518   1.430       .  A
C517        C522   1.401       .  A
C518        C519   1.412       .  A
C518        C523   1.453       .  S
C519        C520   1.405       .  A
C519        C526   1.453       .  S
C520        C521   1.436       .  A
C521        C522   1.408       .  A
C521        C524   1.451       .  S
C522        C525   1.455       .  S
C523        N530   1.158       .  T
C524        N529   1.157       .  T
C525        N527   1.157       .  T
C526        N528   1.157       .  T
C531        C532   1.415       .  A
C531        C536   1.412       .  A
C532        C533   1.421       .  A
C532        C537   1.449       .  S
C533        C534   1.421       .  A
C533        C540   1.451       .  S
C534        C535   1.416       .  A
C535        C536   1.421       .  A
C535        C538   1.444       .  S
C536        C539   1.450       .  S
C537        N544   1.157       .  T
C538        N543   1.155       .  T
C539        N541   1.158   1_655  T
C540        N542   1.158       .  T
C545        C546   1.424       .  A
C545        C550   1.412       .  A
C546        C547   1.414       .  A
C546        C551   1.451       .  S
C547        C548   1.409       .  A
C547        C554   1.453       .  S
C548        C549   1.417       .  A
C549        C550   1.420       .  A
C549        C552   1.449       .  S
C550        C553   1.449       .  S
C551        N558   1.157       .  T
C552        N557   1.157       .  T
C553        N555   1.157       .  T
C554        N556   1.157       .  T
C559        C560   1.433   1_556  A
C559        C564   1.412       .  A
C560        C561   1.416   1_554  A
C560        C565   1.450       .  S
C561        C562   1.401       .  A
C561        C568   1.452       .  S
C562        C563   1.416       .  A
C563        C564   1.412       .  A
C563        C566   1.447       .  S
C564        C567   1.453       .  S
C565        N572   1.157       .  T
C566        N571   1.156       .  T
C567        N569   1.158       .  T
C568        N570   1.157   1_456  T
C573        C574   1.415       .  A
C573        C578   1.442   1_455  A
C574        C575   1.428       .  A
C574        C579   1.448       .  S
C575        C576   1.420       .  A
C575        C582   1.445       .  S
C576        C577   1.404       .  A
C577        C578   1.420   1_455  A
C577        C580   1.454       .  S
C578        C581   1.453       .  S
C579        N586   1.157       .  T
C580        N585   1.157       .  T
C581        N583   1.158       .  T
C582        N584   1.157   1_554  T
C587        C588   1.404       .  A
C587        C592   1.421       .  A
C588        C589   1.413       .  A
C588        C593   1.452       .  S
C589        C590   1.429       .  A
C589        C596   1.452       .  S
C590        C591   1.406       .  A
C591        C592   1.410       .  A
C591        C594   1.451       .  S
C592        C595   1.452       .  S
C593        N600   1.157       .  T
C594        N599   1.157       .  T
C595        N597   1.157       .  T
C596        N598   1.158       .  T
C601        C602   1.430       .  A
C601        C606   1.401       .  A
C602        C603   1.404       .  A
C602        C607   1.453       .  S
C603        C604   1.400       .  A
C603        C610   1.454   1_554  S
C604        C605   1.429       .  A
C605        C606   1.413       .  A
C605        C608   1.451       .  S
C606        C609   1.451       .  S
C607        N614   1.158       .  T
C608        N613   1.158       .  T
C609        N611   1.157       .  T
C610        N612   1.157       .  T
C615        C616   1.421       .  A
C615        C620   1.420       .  A
C616        C617   1.417       .  A
C616        C621   1.451       .  S
C617        C618   1.414       .  A
C617        C624   1.450       .  S
C618        C619   1.407       .  A
C619        C620   1.419       .  A
C619        C622   1.445       .  S
C620        C623   1.443       .  S
C621        N628   1.157       .  T
C622        N627   1.156       .  T
C623        N625   1.156       .  T
C624        N626   1.158       .  T
C629        C630   1.417       .  A
C629        C634   1.401   1_455  A
C630        C631   1.414       .  A
C630        C635   1.452       .  S
C631        C632   1.411       .  A
C631        C638   1.449       .  S
C632        C633   1.430       .  A
C633        C634   1.405   1_455  A
C633        C636   1.455   1_455  S
C634        C637   1.453       .  S
C635        N642   1.156       .  T
C636        N641   1.156       .  T
C637        N639   1.159       .  T
C638        N640   1.159       .  T
C643        C644   1.424       .  A
C643        C648   1.422       .  A
C644        C645   1.418       .  A
C644        C649   1.445       .  S
C645        C646   1.406       .  A
C645        C652   1.454       .  S
C646        C647   1.413       .  A
C647        C648   1.423       .  A
C647        C650   1.450       .  S
C648        C651   1.450       .  S
C649        N656   1.156       .  T
C650        N655   1.157       .  T
C651        N653   1.157       .  T
C652        N654   1.157       .  T
C657        C658   1.428       .  A
C657        C662   1.405       .  A
C658        C659   1.414       .  A
C658        C663   1.449       .  S
C659        C660   1.407       .  A
C659        C666   1.453       .  S
C660        C661   1.427       .  A
C661        C662   1.414       .  A
C661        C664   1.452       .  S
C662        C665   1.451       .  S
C663        N670   1.157       .  T
C664        N669   1.158       .  T
C665        N667   1.157       .  T
C666        N668   1.157       .  T
C671        C672   1.408       .  A
C671        C676   1.414       .  A
C672        C673   1.421       .  A
C672        C677   1.445       .  S
C673        C674   1.421       .  A
C673        C680   1.448       .  S
C674        C675   1.420       .  A
C675        C676   1.415       .  A
C675        C678   1.451       .  S
C676        C679   1.452       .  S
C677        N684   1.156       .  T
C678        N683   1.157       .  T
C679        N681   1.157       .  T
C680        N682   1.157   1_445  T
C685        C686   1.426       .  A
C685        C690   1.400   1_545  A
C686        C687   1.422   1_545  A
C686        C691   1.452       .  S
C687        C688   1.410       .  A
C687        C694   1.447       .  S
C688        C689   1.435       .  A
C689        C690   1.418       .  A
C689        C692   1.446       .  S
C690        C693   1.453       .  S
C691        N698   1.158       .  T
C692        N697   1.155       .  T
C693        N695   1.157       .  T
C694        N696   1.156   1_564  T
C699        C700   1.422       .  A
C699        C704   1.411       .  A
C700        C701   1.419       .  A
C700        C705   1.450       .  S
C701        C702   1.407       .  A
C701        C708   1.446       .  S
C702        C703   1.420       .  A
C703        C704   1.416       .  A
C703        C706   1.452       .  S
C704        C707   1.450       .  S
C705        N712   1.156       .  T
C706        N711   1.157       .  T
C707        N709   1.157       .  T
C708        N710   1.157       .  T
C713        C714   1.408       .  A
C713        C718   1.415       .  A
C714        C715   1.416       .  A
C714        C719   1.451       .  S
C715        C716   1.424       .  A
C715        C722   1.451       .  S
C716        C717   1.417       .  A
C717        C718   1.422       .  A
C717        C720   1.449       .  S
C718        C721   1.450       .  S
C719        N726   1.157       .  T
C720        N725   1.157       .  T
C721        N723   1.157       .  T
C722        N724   1.157       .  T
C727        C728   1.418       .  A
C727        C732   1.409       .  A
C728        C729   1.423       .  A
C728        C733   1.449       .  S
C729        C730   1.415       .  A
C729        C736   1.450       .  S
C730        C731   1.420       .  A
C731        C732   1.416       .  A
C731        C734   1.448       .  S
C732        C735   1.453       .  S
C733        N740   1.157   1_554  T
C734        N739   1.156       .  T
C735        N737   1.157   1_545  T
C736        N738   1.157       .  T
C741        C742   1.404       .  A
C741        C746   1.429       .  A
C742        C743   1.407       .  A
C742        C747   1.451       .  S
C743        C744   1.421       .  A
C743        C750   1.453       .  S
C744        C745   1.400       .  A
C745        C746   1.408       .  A
C745        C748   1.453       .  S
C746        C749   1.452       .  S
C747        N754   1.157       .  T
C748        N753   1.157       .  T
C749        N751   1.158       .  T
C750        N752   1.158       .  T
C755        C756   1.399       .  A
C755        C760   1.417       .  A
C756        C757   1.409       .  A
C756        C761   1.453       .  S
C757        C758   1.434       .  A
C757        C764   1.454       .  S
C758        C759   1.412       .  A
C759        C760   1.417       .  A
C759        C762   1.447   1_545  S
C760        C763   1.451       .  S
C761        N768   1.157       .  T
C762        N767   1.157       .  T
C763        N765   1.157       .  T
C764        N766   1.158       .  T
