geometry optimzed in LAMMPS
_audit_creation_date              2020-11-30 
_audit_creation_method            'lammps2cif' 
_symmetry_space_group_name_H-M    'P1' 
_symmetry_Int_Tables_number       1 
_symmetry_cell_setting            triclinic 
loop_ 
_symmetry_equiv_pos_as_xyz 
  x,y,z 
_cell_length_a                    71.95161337 
_cell_length_b                    71.88494143592533 
_cell_length_c                    71.92968901615026 
_cell_angle_alpha                 89.86949095564604 
_cell_angle_beta                  89.98630968250386 
_cell_angle_gamma                 90.10419074591275 
loop_ 
_atom_site_label 
_atom_site_type_symbol 
_atom_site_fract_x 
_atom_site_fract_y 
_atom_site_fract_z 
_atom_site_charge 
O1          O  0.48523403  0.01970924  0.77582883    -0.85300
O2          O  0.46713074  0.02633118  0.74300459    -0.82400
C3          C  0.46430313  0.02662146  0.72571216     0.98100
O4          O  0.47151390  0.01430245  0.71553032    -0.82400
O5          O  0.50837535  0.02490187  0.71606825    -0.85100
C6          C  0.52486171  0.02705366  0.72171610     1.02600
O7          O  0.53132231  0.01628069  0.73416494    -0.77800
O8          O  0.51334323  0.02608884  0.76587283    -0.78000
C9          C  0.49906238  0.03066674  0.77489518     1.02600
O10         O  0.48112233  0.97947929  0.76860469    -0.85300
O11         O  0.46072176  0.98683349  0.73791204    -0.82400
C12         C  0.46689182  0.97485899  0.72655309     0.98100
O13         O  0.48289552  0.97651687  0.71966476    -0.82400
O14         O  0.51915922  0.98683258  0.71520275    -0.85000
C15         C  0.52611333  0.97496892  0.72607279     1.02600
O16         O  0.52475743  0.97716441  0.74336336    -0.77900
O17         O  0.50945091  0.98673391  0.77650711    -0.78000
C18         C  0.49607710  0.97522739  0.77667192     1.02600
Cr19       Cr  0.47517272  0.00304678  0.75565200     1.93700
Cr20       Cr  0.49551317  0.00077061  0.71847366     1.93200
Cr21       Cr  0.51812329  0.00162740  0.75430009     1.39100
O22         O  0.49626979  0.00199977  0.74291790    -1.23100
O23         O  0.51548628  0.80585541  0.83500308    -0.85300
O24         O  0.53186084  0.77678252  0.81587986    -0.82400
C25         C  0.53351889  0.76374741  0.80427274     0.98100
O26         O  0.52465602  0.76414960  0.78911865    -0.82400
O27         O  0.48803987  0.75918155  0.79869971    -0.85100
C28         C  0.47197038  0.76239720  0.80484766     1.02600
O29         O  0.46628923  0.77902578  0.80659785    -0.77800
O30         O  0.48700199  0.79485665  0.83492623    -0.78000
C31         C  0.50154299  0.79934763  0.84368071     1.02600
O32         O  0.51810918  0.82825773  0.80117192    -0.85300
O33         O  0.53680809  0.79981004  0.78377001    -0.82400
C34         C  0.53045551  0.79891008  0.76736598     0.98100
O35         O  0.51397552  0.79362181  0.76449536    -0.82400
O36         O  0.47681125  0.78557073  0.77097452    -0.85000
C37         C  0.46885088  0.80125027  0.77135339     1.02600
O38         O  0.47216034  0.81229873  0.78455401    -0.77900
O39         O  0.49049172  0.82908420  0.81393331    -0.78000
C40         C  0.50434069  0.83746417  0.80689377     1.02600
Cr41       Cr  0.52371967  0.80212847  0.80836240     1.93700
Cr42       Cr  0.50094512  0.77708530  0.78228045     1.93200
Cr43       Cr  0.48074469  0.80310867  0.80930484     1.39100
O44         O  0.50183056  0.79410008  0.80008904    -1.23100
O45         O  0.51569028  0.75804246  0.03149583    -0.85300
O46         O  0.53477616  0.72712669  0.02255143    -0.82400
C47         C  0.52886117  0.71456748  0.03351580     0.98100
O48         O  0.51261837  0.70813074  0.03167144    -0.82400
O49         O  0.47574216  0.70535309  0.02156698    -0.85100
C50         C  0.46907147  0.71545273  0.03419033     1.02600
O51         O  0.47160116  0.73276364  0.03383764    -0.77800
O52         O  0.48710937  0.76646940  0.02608627    -0.78000
C53         C  0.50122515  0.76633050  0.03667971     1.02600
O54         O  0.51065806  0.76710945  0.99151039    -0.85300
O55         O  0.52820560  0.73436632  0.98336414    -0.82400
C56         C  0.53140642  0.71715722  0.98281547     0.98100
O57         O  0.52330077  0.70635187  0.99398369    -0.82400
O58         O  0.48650214  0.70907138  0.98371280    -0.85000
C59         C  0.47022840  0.71537475  0.98222105     1.02600
O60         O  0.46385502  0.72651671  0.99437060    -0.77900
O61         O  0.48207801  0.75814929  0.98609885    -0.78000
C62         C  0.49654452  0.76657242  0.98091347     1.02600
Cr63       Cr  0.52065704  0.74600407  0.00727808     1.93700
Cr64       Cr  0.49950729  0.70910017  0.00774881     1.93200
Cr65       Cr  0.47777829  0.74533316  0.01001430     1.39100
O66         O  0.49935958  0.73361455  0.00828630    -1.23100
O67         O  0.48312220  0.21114151  0.83263832    -0.85300
O68         O  0.46276900  0.22645686  0.80419713    -0.82400
C69         C  0.46875622  0.24303488  0.80324363     0.98100
O70         O  0.48478567  0.24637418  0.79704742    -0.82400
O71         O  0.52152357  0.24154344  0.78806391    -0.85100
C72         C  0.52983107  0.24194032  0.80353184     1.02600
O73         O  0.52792544  0.22865103  0.81489663    -0.77800
O74         O  0.51107336  0.19927370  0.83333271    -0.78000
C75         C  0.49731050  0.20647457  0.84175020     1.02600
O76         O  0.48678497  0.17658313  0.81206510    -0.85300
O77         O  0.46916641  0.19334224  0.78257368    -0.82400
C78         C  0.46668695  0.20414452  0.76898830     0.98100
O79         O  0.47420346  0.22006064  0.76870490    -0.82400
O80         O  0.51099412  0.21250429  0.76295065    -0.85000
C81         C  0.52739051  0.20713801  0.76587651     1.02600
O82         O  0.53356433  0.20598720  0.78236543    -0.77900
O83         O  0.51424011  0.17757577  0.79907212    -0.78000
C84         C  0.50018706  0.16837078  0.80411240     1.02600
Cr85       Cr  0.47716246  0.20254929  0.80723315     1.93700
Cr86       Cr  0.49787783  0.22876648  0.78062439     1.93200
Cr87       Cr  0.51998329  0.20341140  0.80684551     1.39100
O88         O  0.49836256  0.21156227  0.79827102    -1.23100
O89         O  0.51757761  0.24305039  0.98541615    -0.85300
O90         O  0.53768791  0.27310564  0.99628350    -0.82400
C91         C  0.53230756  0.28599567  0.98545259     0.98100
O92         O  0.51595728  0.29209521  0.98648490    -0.82400
O93         O  0.47913351  0.29577345  0.99473009    -0.85100
C94         C  0.47168229  0.28604246  0.98218523     1.02600
O95         O  0.47336213  0.26858530  0.98277876    -0.77800
O96         O  0.48890066  0.23457495  0.99063352    -0.78000
C97         C  0.50296050  0.23506527  0.97999680     1.02600
O98         O  0.51117412  0.23237314  0.02446874    -0.85300
O99         O  0.52885350  0.26442443  0.03475439    -0.82400
C100        C  0.53130961  0.28164508  0.03679291     0.98100
O101        O  0.52496180  0.29298257  0.02500627    -0.82400
O102        O  0.48785467  0.29170690  0.03300907    -0.85000
C103        C  0.47115980  0.28648693  0.03331668     1.02600
O104        O  0.46524259  0.27441116  0.02189001    -0.77900
O105        O  0.48318109  0.24236323  0.03045850    -0.78000
C106        C  0.49710660  0.23287895  0.03513899     1.02600
Cr107      Cr  0.52220432  0.25396483  0.01011960     1.93700
Cr108      Cr  0.50196564  0.29124886  0.00973300     1.93200
Cr109      Cr  0.47933343  0.25556528  0.00660793     1.39100
O110        O  0.50115562  0.26683114  0.00887703    -1.23100
O111        O  0.51536025  0.20630569  0.18118535    -0.85300
O112        O  0.53485108  0.22335627  0.20912375    -0.82400
C113        C  0.52907468  0.24004086  0.20909912     0.98100
O114        O  0.51275100  0.24357506  0.21442317    -0.82400
O115        O  0.47554907  0.23884101  0.22288666    -0.85100
C116        C  0.46733703  0.23823004  0.20734811     1.02600
O117        O  0.46979850  0.22447611  0.19675308    -0.77800
O118        O  0.48730417  0.19431239  0.18042200    -0.78000
C119        C  0.50138685  0.20095612  0.17205762     1.02600
O120        O  0.51123040  0.17286636  0.20360054    -0.85300
O121        O  0.52792808  0.19152664  0.23292743    -0.82400
C122        C  0.53073858  0.20361268  0.24532787     0.98100
O123        O  0.52279998  0.21924553  0.24427230    -0.82400
O124        O  0.48578555  0.21116846  0.24985677    -0.85000
C125        C  0.46962228  0.20503725  0.24691668     1.02600
O126        O  0.46359413  0.20327333  0.23042442    -0.77900
O127        O  0.48324688  0.17414492  0.21537977    -0.78000
C128        C  0.49730278  0.16475318  0.21081874     1.02600
Cr129      Cr  0.52060214  0.19916604  0.20728228     1.93700
Cr130      Cr  0.49917682  0.22673395  0.23151867     1.93200
Cr131      Cr  0.47772346  0.19970328  0.20636791     1.39100
O132        O  0.49913498  0.20851092  0.21499127    -1.23100
O133        O  0.48243967  0.79027371  0.18428408    -0.85300
O134        O  0.46345433  0.77316539  0.21291640    -0.82400
C135        C  0.46993226  0.75675859  0.21378969     0.98100
O136        O  0.48640467  0.75428162  0.21920579    -0.82400
O137        O  0.52343088  0.76126068  0.22684436    -0.85100
C138        C  0.53113590  0.76195900  0.21106567     1.02600
O139        O  0.52806843  0.77538069  0.20017413    -0.77800
O140        O  0.50936626  0.80448482  0.18348122    -0.78000
C141        C  0.49605836  0.79646465  0.17507235     1.02600
O142        O  0.48464465  0.82465702  0.20575676    -0.85300
O143        O  0.46883234  0.80603704  0.23543106    -0.82400
C144        C  0.46738553  0.79480065  0.24888470     0.98100
O145        O  0.47559405  0.77929490  0.24819468    -0.82400
O146        O  0.51242341  0.78860853  0.25334715    -0.85000
C147        C  0.52845090  0.79498707  0.25016285     1.02600
O148        O  0.53391051  0.79733911  0.23352036    -0.77900
O149        O  0.51227252  0.82493183  0.21848674    -0.78000
C150        C  0.49774300  0.83344340  0.21367846     1.02600
Cr151      Cr  0.47655823  0.79795485  0.21016380     1.93700
Cr152      Cr  0.49937069  0.77229100  0.23549766     1.93200
Cr153      Cr  0.51925844  0.79983947  0.20953659     1.39100
O154        O  0.49841313  0.79002607  0.21838281    -1.23100
O155        O  0.48613468  0.98247708  0.24096396    -0.85300
O156        O  0.46916697  0.97588082  0.27411137    -0.82400
C157        C  0.46611687  0.97567156  0.29132691     0.98100
O158        O  0.47394481  0.98743166  0.30169428    -0.82400
O159        O  0.51038894  0.97548936  0.29906988    -0.85100
C160        C  0.52663929  0.97311499  0.29289832     1.02600
O161        O  0.53331079  0.98431116  0.28097557    -0.77800
O162        O  0.51462154  0.97606555  0.24949898    -0.78000
C163        C  0.49989839  0.97147910  0.24121919     1.02600
O164        O  0.48304385  0.02266645  0.24829587    -0.85300
O165        O  0.46405770  0.01576484  0.27994858    -0.82400
C166        C  0.47064697  0.02702865  0.29184841     0.98100
O167        O  0.48675135  0.02466735  0.29835785    -0.82400
O168        O  0.52300299  0.01297423  0.30147757    -0.85000
C169        C  0.53118870  0.02436833  0.29090906     1.02600
O170        O  0.52833416  0.02371498  0.27364578    -0.77900
O171        O  0.51171131  0.01607386  0.24044786    -0.78000
C172        C  0.49783639  0.02692541  0.23994789     1.02600
Cr173      Cr  0.47726518  0.99922621  0.26155727     1.93700
Cr174      Cr  0.49854433  0.00009647  0.29824201     1.93200
Cr175      Cr  0.52029404  0.00003488  0.26181033     1.39100
O176        O  0.49869587  0.99984342  0.27370727    -1.23100
O177        O  0.75840552  0.51929969  0.98634226    -0.85300
O178        O  0.72806711  0.53965384  0.99561224    -0.82400
C179        C  0.71617452  0.53338607  0.98418508     0.98100
O180        O  0.70921773  0.51746926  0.98639738    -0.82400
O181        O  0.70541219  0.48103545  0.99647014    -0.85100
C182        C  0.71559478  0.47376682  0.98424091     1.02600
O183        O  0.73298659  0.47523487  0.98538340    -0.77800
O184        O  0.76655765  0.49078161  0.99313539    -0.78000
C185        C  0.76653338  0.50444584  0.98191182     1.02600
O186        O  0.76785072  0.51465895  0.02594981    -0.85300
O187        O  0.73560117  0.53269235  0.03481735    -0.82400
C188        C  0.71835705  0.53529741  0.03639448     0.98100
O189        O  0.70743690  0.52844667  0.02447091    -0.82400
O190        O  0.70825976  0.49134507  0.03440156    -0.85000
C191        C  0.71353083  0.47465951  0.03559129     1.02600
O192        O  0.72592346  0.46837639  0.02469139    -0.77900
O193        O  0.75768914  0.48681183  0.03291264    -0.78000
C194        C  0.76699056  0.50099888  0.03713375     1.02600
Cr195      Cr  0.74673274  0.52497675  0.01066269     1.93700
Cr196      Cr  0.70943737  0.50459403  0.01044822     1.93200
Cr197      Cr  0.74518078  0.48194897  0.00913623     1.39100
O198        O  0.73388288  0.50382963  0.01017347    -1.23100
O199        O  0.80222333  0.48662870  0.83487347    -0.85300
O200        O  0.77249916  0.47100170  0.81637833    -0.82400
C201        C  0.75958161  0.46880729  0.80478845     0.98100
O202        O  0.76013152  0.47729298  0.78933031    -0.82400
O203        O  0.75503281  0.51414666  0.79874517    -0.85100
C204        C  0.75824590  0.53002752  0.80544996     1.02600
O205        O  0.77487188  0.53578073  0.80705116    -0.77800
O206        O  0.79003493  0.51448947  0.83491755    -0.78000
C207        C  0.79510620  0.50015905  0.84367597     1.02600
O208        O  0.82341869  0.48391454  0.80056645    -0.85300
O209        O  0.79486638  0.46516728  0.78340503    -0.82400
C210        C  0.79453567  0.47184747  0.76702356     0.98100
O211        O  0.78941877  0.48842874  0.76439676    -0.82400
O212        O  0.78151180  0.52551922  0.77119463    -0.85000
C213        C  0.79720844  0.53350856  0.77179447     1.02600
O214        O  0.80812514  0.53018321  0.78510435    -0.77900
O215        O  0.82471106  0.51115600  0.81406266    -0.78000
C216        C  0.83282925  0.49749145  0.80641969     1.02600
Cr217      Cr  0.79769182  0.47841999  0.80822296     1.93700
Cr218      Cr  0.77286320  0.50127628  0.78229263     1.93200
Cr219      Cr  0.79880090  0.52122873  0.80960423     1.39100
O220        O  0.78983335  0.50033668  0.80004711    -1.23100
O221        O  0.01623153  0.50775816  0.77696113    -0.85300
O222        O  0.02446656  0.52584933  0.74463049    -0.82400
C223        C  0.02513373  0.52927408  0.72748724     0.98100
O224        O  0.01287848  0.52254670  0.71694073    -0.82400
O225        O  0.02228589  0.48537012  0.71810210    -0.85100
C226        C  0.02350234  0.46881097  0.72385011     1.02600
O227        O  0.01167615  0.46229023  0.73523798    -0.77800
O228        O  0.02101767  0.47949195  0.76710094    -0.78000
C229        C  0.02671737  0.49362902  0.77572842     1.02600
O230        O  0.97636253  0.51398354  0.76862210    -0.85300
O231        O  0.98530409  0.53409779  0.73827090    -0.82400
C232        C  0.97386045  0.52893249  0.72582290     0.98100
O233        O  0.97488561  0.51277479  0.71901755    -0.82400
O234        O  0.98422128  0.47574137  0.71481917    -0.85000
C235        C  0.97213261  0.46788178  0.72480880     1.02600
O236        O  0.97273348  0.46978479  0.74221494    -0.77900
O237        O  0.98118114  0.48494534  0.77607285    -0.78000
C238        C  0.97070291  0.49910486  0.77597427     1.02600
Cr239      Cr  0.00046546  0.51878754  0.75643548     1.93700
Cr240      Cr  0.99856456  0.49900121  0.71908512     1.93200
Cr241      Cr  0.99674314  0.47584446  0.75461853     1.39100
O242        O  0.99854158  0.49787176  0.74350787    -1.23100
O243        O  0.82502068  0.48801379  0.21464521    -0.85300
O244        O  0.79837212  0.46649399  0.23240654    -0.82400
C245        C  0.79751098  0.47199717  0.24915490     0.98100
O246        O  0.79061294  0.48766636  0.25291844    -0.82400
O247        O  0.78029737  0.52440078  0.24854507    -0.85100
C248        C  0.79581645  0.53270751  0.24857184     1.02600
O249        O  0.80665335  0.53109832  0.23487524    -0.77800
O250        O  0.82336409  0.51638984  0.20353119    -0.78000
C251        C  0.83295572  0.50265517  0.20895192     1.02600
O252        O  0.80159302  0.49124079  0.18246601    -0.85300
O253        O  0.77393320  0.47193303  0.20076906    -0.82400
C254        C  0.76137481  0.46839513  0.21250212     0.98100
O255        O  0.76169825  0.47621381  0.22820633    -0.82400
O256        O  0.75411157  0.51310472  0.22058123    -0.85000
C257        C  0.75632658  0.52974169  0.21544127     1.02600
O258        O  0.77253374  0.53662362  0.21435443    -0.77900
O259        O  0.78811923  0.51853416  0.18436366    -0.78000
C260        C  0.79383730  0.50503297  0.17473725     1.02600
Cr261      Cr  0.79900068  0.48107125  0.20836335     1.93700
Cr262      Cr  0.77302735  0.50045622  0.23609461     1.93200
Cr263      Cr  0.79712475  0.52390443  0.20990388     1.39100
O264        O  0.78982286  0.50177342  0.21810100    -1.23100
O265        O  0.98038812  0.51143878  0.23513729    -0.85300
O266        O  0.97092489  0.52851295  0.26778199    -0.82400
C267        C  0.96914141  0.53034233  0.28513064     0.98100
O268        O  0.98176462  0.52454085  0.29578376    -0.82400
O269        O  0.97308359  0.48738713  0.29358406    -0.85100
C270        C  0.97237748  0.47085632  0.28786919     1.02600
O271        O  0.98447042  0.46483068  0.27650710    -0.77800
O272        O  0.97516683  0.48306786  0.24477203    -0.78000
C273        C  0.96999546  0.49710560  0.23569540     1.02600
O274        O  0.02002485  0.51781291  0.24468640    -0.85300
O275        O  0.01004004  0.53725717  0.27532295    -0.82400
C276        C  0.02175636  0.53133208  0.28717916     0.98100
O277        O  0.02019850  0.51522564  0.29393360    -0.82400
O278        O  0.01147679  0.47828790  0.29695389    -0.85000
C279        C  0.02453823  0.47243932  0.28689148     1.02600
O280        O  0.02340480  0.47396132  0.26948692    -0.77900
O281        O  0.01438515  0.48929060  0.23599757    -0.78000
C282        C  0.02521207  0.50321384  0.23655614     1.02600
Cr283      Cr  0.99543946  0.52223334  0.25639177     1.93700
Cr284      Cr  0.99663537  0.50135651  0.29329913     1.93200
Cr285      Cr  0.99920866  0.47935693  0.25733602     1.39100
O286        O  0.99704370  0.50100540  0.26888092    -1.23100
O287        O  0.17198629  0.51090398  0.20409405    -0.85300
O288        O  0.18901090  0.52746769  0.23441893    -0.82400
C289        C  0.20018289  0.52998344  0.24772622     0.98100
O290        O  0.21580882  0.52197372  0.24765203    -0.82400
O291        O  0.20756783  0.48453843  0.25200115    -0.85100
C292        C  0.20182722  0.46835705  0.24822235     1.02600
O293        O  0.20134510  0.46297836  0.23145664    -0.77800
O294        O  0.17310360  0.48270207  0.21560094    -0.78000
C295        C  0.16384551  0.49685668  0.21106148     1.02600
O296        O  0.20641163  0.51568011  0.18314696    -0.85300
O297        O  0.22194673  0.53466285  0.21243753    -0.82400
C298        C  0.23862379  0.52914484  0.21376005     0.98100
O299        O  0.24201371  0.51276873  0.21925175    -0.82400
O300        O  0.23684272  0.47506375  0.22657881    -0.85000
C301        C  0.23720778  0.46718136  0.21086613     1.02600
O302        O  0.22436669  0.47022817  0.19928092    -0.77900
O303        O  0.19480788  0.48756086  0.18149628    -0.78000
C304        C  0.20154652  0.50184137  0.17351040     1.02600
Cr305      Cr  0.19800834  0.52042275  0.20911879     1.93700
Cr306      Cr  0.22417562  0.49859482  0.23491232     1.93200
Cr307      Cr  0.19900887  0.47761688  0.20761318     1.39100
O308        O  0.20708271  0.49889246  0.21713990    -1.23100
O309        O  0.19556480  0.51357581  0.83264113    -0.85300
O310        O  0.22467515  0.53163350  0.81469040    -0.82400
C311        C  0.23791435  0.53421552  0.80340474     0.98100
O312        O  0.23804077  0.52576324  0.78797850    -0.82400
O313        O  0.24427964  0.48880743  0.79669063    -0.85100
C314        C  0.24147139  0.47254476  0.80266929     1.02600
O315        O  0.22500029  0.46631895  0.80383110    -0.77800
O316        O  0.20906817  0.48629398  0.83221883    -0.78000
C317        C  0.20349492  0.50027898  0.84116336     1.02600
O318        O  0.17405908  0.51584287  0.79817061    -0.85300
O319        O  0.20207579  0.53654294  0.78188377    -0.82400
C320        C  0.20344961  0.53048928  0.76537670     0.98100
O321        O  0.20966269  0.51437798  0.76246300    -0.82400
O322        O  0.21829929  0.47753002  0.76839106    -0.85000
C323        C  0.20266590  0.46935848  0.76843030     1.02600
O324        O  0.19177621  0.47163971  0.78196968    -0.77900
O325        O  0.17438762  0.48854519  0.81164622    -0.78000
C326        C  0.16543745  0.50160777  0.80389077     1.02600
Cr327      Cr  0.19972900  0.52271039  0.80625506     1.93700
Cr328      Cr  0.22619678  0.50159476  0.78031110     1.93200
Cr329      Cr  0.20067338  0.47992814  0.80676731     1.39100
O330        O  0.20887900  0.50144362  0.79781181    -1.23100
O331        O  0.23074302  0.49237359  0.98995240    -0.85300
O332        O  0.26334404  0.47531590  0.98125249    -0.82400
C333        C  0.28051789  0.47233866  0.98012616     0.98100
O334        O  0.29154215  0.47955451  0.99169918    -0.82400
O335        O  0.28940782  0.51654569  0.98160520    -0.85100
C336        C  0.28434059  0.53327148  0.98059271     1.02600
O337        O  0.27190406  0.53936911  0.99162756    -0.77800
O338        O  0.24018854  0.52053168  0.98342629    -0.78000
C339        C  0.23108960  0.50627599  0.97899452     1.02600
O340        O  0.24043583  0.48752979  0.02970769    -0.85300
O341        O  0.27120000  0.46822788  0.02048083    -0.82400
C342        C  0.28347712  0.47437646  0.03160937     0.98100
O343        O  0.28981604  0.49061002  0.02960331    -0.82400
O344        O  0.29265927  0.52729823  0.01949098    -0.85000
C345        C  0.28219678  0.53470095  0.03143886     1.02600
O346        O  0.26495300  0.53203085  0.03094599    -0.77900
O347        O  0.23166637  0.51589990  0.02356075    -0.78000
C348        C  0.23214668  0.50211071  0.03466702     1.02600
Cr349      Cr  0.25212998  0.48247451  0.00537689     1.93700
Cr350      Cr  0.28901169  0.50349673  0.00560110     1.93200
Cr351      Cr  0.25279186  0.52534437  0.00726078     1.39100
O352        O  0.26454124  0.50377082  0.00605635    -1.23100
O353        O  0.98102865  0.76935557  0.51826866    -0.85300
O354        O  0.97197606  0.73603265  0.53421352    -0.82400
C355        C  0.97115806  0.71874883  0.53698474     0.98100
O356        O  0.98291321  0.70812831  0.52949616    -0.82400
O357        O  0.97389266  0.71151798  0.49238147    -0.85100
C358        C  0.97285413  0.71766133  0.47597170     1.02600
O359        O  0.98429000  0.72997346  0.47040823    -0.77800
O360        O  0.97570388  0.76085376  0.48973172    -0.78000
C361        C  0.97040158  0.76901969  0.50419419     1.02600
O362        O  0.02067246  0.75992785  0.52393590    -0.85300
O363        O  0.01083144  0.72850207  0.54203471    -0.82400
C364        C  0.02205495  0.71622943  0.53621545     0.98100
O365        O  0.02102930  0.71047621  0.51969099    -0.82400
O366        O  0.01200478  0.70859047  0.48247435    -0.85000
C367        C  0.02359525  0.71921512  0.47462004     1.02600
O368        O  0.02342068  0.73638602  0.47800557    -0.77900
O369        O  0.01579171  0.76928779  0.49542118    -0.78000
C370        C  0.02620382  0.76853974  0.50968733     1.02600
Cr371      Cr  0.99624675  0.74782400  0.52792930     1.93700
Cr372      Cr  0.99750159  0.71156718  0.50601945     1.93200
Cr373      Cr  0.99968053  0.74848927  0.48507897     1.39100
O374        O  0.99789216  0.73606385  0.50633730    -1.23100
O375        O  0.80197730  0.82526587  0.52061118    -0.85300
O376        O  0.77213192  0.80833210  0.53757440    -0.82400
C377        C  0.75880422  0.79730846  0.54046174     0.98100
O378        O  0.75833992  0.78173299  0.53231726    -0.82400
O379        O  0.75317238  0.79060650  0.49528534    -0.85100
C380        C  0.75654145  0.79613253  0.47898857     1.02600
O381        O  0.77311307  0.79652233  0.47293120    -0.77800
O382        O  0.78991839  0.82491969  0.49270660    -0.78000
C383        C  0.79501322  0.83395554  0.50690276     1.02600
O384        O  0.82243567  0.79039952  0.52421964    -0.85300
O385        O  0.79362696  0.77475368  0.54367139    -0.82400
C386        C  0.79211997  0.75819999  0.53766025     0.98100
O387        O  0.78602870  0.75531490  0.52150183    -0.82400
O388        O  0.77794080  0.76105282  0.48447971    -0.85000
C389        C  0.79389044  0.76013036  0.47707109     1.02600
O390        O  0.80532829  0.77328290  0.47943602    -0.77900
O391        O  0.82364352  0.80266575  0.49638703    -0.78000
C392        C  0.83177336  0.79525376  0.51021121     1.02600
Cr393      Cr  0.79691455  0.79906119  0.52980318     1.93700
Cr394      Cr  0.77028644  0.77356594  0.50837648     1.93200
Cr395      Cr  0.79734882  0.79877125  0.48702355     1.39100
O396        O  0.78823604  0.79049529  0.50840518    -1.23100
O397        O  0.76596662  0.01731050  0.52197576    -0.85300
O398        O  0.73310560  0.02789905  0.53739928    -0.82400
C399        C  0.71586407  0.03060533  0.53858751     0.98100
O400        O  0.70466900  0.01941227  0.53103462    -0.82400
O401        O  0.70962076  0.02864190  0.49436977    -0.85100
C402        C  0.71613307  0.02919674  0.47811559     1.02600
O403        O  0.72784841  0.01705932  0.47287973    -0.77800
O404        O  0.75873688  0.02351356  0.49314984    -0.78000
C405        C  0.76673793  0.02811384  0.50799432     1.02600
O406        O  0.75386957  0.97793040  0.52656937    -0.85300
O407        O  0.72265324  0.98932471  0.54406804    -0.82400
C408        C  0.70992752  0.97901906  0.53739857     0.98100
O409        O  0.70459087  0.98114720  0.52087054    -0.82400
O410        O  0.70450970  0.99083464  0.48393143    -0.85000
C411        C  0.71445813  0.97803383  0.47728181     1.02600
O412        O  0.73157494  0.97758356  0.48079885    -0.77900
O413        O  0.76458494  0.98327891  0.49865736    -0.78000
C414        C  0.76279507  0.97246193  0.51253363     1.02600
Cr415      Cr  0.74330875  0.00307107  0.53085166     1.93700
Cr416      Cr  0.70772670  0.00484749  0.50768482     1.93200
Cr417      Cr  0.74496975  0.00050685  0.48798956     1.39100
O418        O  0.73211019  0.00283920  0.50887066    -1.23100
O419        O  0.19583904  0.82576060  0.49593205    -0.85300
O420        O  0.22500727  0.80827834  0.47824318    -0.82400
C421        C  0.23839876  0.79727137  0.47571545     0.98100
O422        O  0.23873773  0.78179559  0.48409220    -0.82400
O423        O  0.24407274  0.79065664  0.52130782    -0.85100
C424        C  0.24079286  0.79578221  0.53775683     1.02600
O425        O  0.22416401  0.79614731  0.54365445    -0.77800
O426        O  0.20819731  0.82491213  0.52382294    -0.78000
C427        C  0.20298662  0.83410025  0.50976839     1.02600
O428        O  0.17409766  0.79160871  0.49257831    -0.85300
O429        O  0.20269849  0.77504547  0.47275878    -0.82400
C430        C  0.20453616  0.75850056  0.47879363     0.98100
O431        O  0.21084481  0.75560023  0.49489257    -0.82400
O432        O  0.21877903  0.76155932  0.53181142    -0.85000
C433        C  0.20281055  0.76039593  0.53902996     1.02600
O434        O  0.19144696  0.77362425  0.53680778    -0.77900
O435        O  0.17384275  0.80387710  0.52030878    -0.78000
C436        C  0.16506129  0.79724908  0.50653823     1.02600
Cr437      Cr  0.20005322  0.79949514  0.48659265     1.93700
Cr438      Cr  0.22669629  0.77382381  0.50801906     1.93200
Cr439      Cr  0.20004414  0.79903113  0.52943877     1.39100
O440        O  0.20887548  0.79081049  0.50795154    -1.23100
O441        O  0.23309247  0.01846513  0.49558164    -0.85300
O442        O  0.26640714  0.02432272  0.47850804    -0.82400
C443        C  0.28360039  0.02402825  0.47526509     0.98100
O444        O  0.29343550  0.01173225  0.48290943    -0.82400
O445        O  0.29098996  0.02471436  0.51882990    -0.85100
C446        C  0.28449006  0.02764592  0.53483954     1.02600
O447        O  0.27291689  0.01643443  0.54222501    -0.77800
O448        O  0.24111257  0.02393745  0.52433546    -0.78000
C449        C  0.23341071  0.02923625  0.50950913     1.02600
O450        O  0.23979302  0.97795913  0.49248958    -0.85300
O451        O  0.27138155  0.98408986  0.47389610    -0.82400
C452        C  0.28217060  0.97206568  0.48106292     0.98100
O453        O  0.28926849  0.97490355  0.49685385    -0.82400
O454        O  0.29351728  0.98786618  0.53257120    -0.85000
C455        C  0.28331487  0.97607481  0.54056011     1.02600
O456        O  0.26603483  0.97650080  0.53783864    -0.77900
O457        O  0.23266812  0.98350679  0.52146419    -0.78000
C458        C  0.23224212  0.97282251  0.50744927     1.02600
Cr459      Cr  0.25333472  0.00122713  0.48674916     1.93700
Cr460      Cr  0.28994655  0.99984539  0.50779573     1.93200
Cr461      Cr  0.25379114  0.00008563  0.52982489     1.39100
O462        O  0.26546662  0.00042503  0.50814572    -1.23100
O463        O  0.80308266  0.17435790  0.49538440    -0.85300
O464        O  0.77359842  0.19139967  0.47769306    -0.82400
C465        C  0.76070550  0.20279639  0.47441465     0.98100
O466        O  0.76061574  0.21852938  0.48224727    -0.82400
O467        O  0.75393636  0.21057434  0.51924017    -0.85100
C468        C  0.75664267  0.20487919  0.53561420     1.02600
O469        O  0.77308446  0.20373013  0.54195978    -0.77800
O470        O  0.78955857  0.17513001  0.52261877    -0.78000
C471        C  0.79546807  0.16598129  0.50889655     1.02600
O472        O  0.82394958  0.20857137  0.49188276    -0.85300
O473        O  0.79589382  0.22424258  0.47141120    -0.82400
C474        C  0.79511427  0.24085563  0.47723186     0.98100
O475        O  0.78899391  0.24421773  0.49330002    -0.82400
O476        O  0.77963694  0.23914372  0.53014100    -0.85000
C477        C  0.79495784  0.23921157  0.53876109     1.02600
O478        O  0.80622816  0.22595627  0.53653580    -0.77900
O479        O  0.82407058  0.19628615  0.51976582    -0.78000
C480        C  0.83278778  0.20331024  0.50605755     1.02600
Cr481      Cr  0.79844808  0.20030060  0.48577935     1.93700
Cr482      Cr  0.77216091  0.22673223  0.50628317     1.93200
Cr483      Cr  0.79766328  0.20085964  0.52853292     1.39100
O484        O  0.78946875  0.20928998  0.50689009    -1.23100
O485        O  0.17374397  0.19806721  0.49625290    -0.85300
O486        O  0.19053799  0.22718164  0.47759026    -0.82400
C487        C  0.20152621  0.24046556  0.47427506     0.98100
O488        O  0.21748553  0.24072700  0.48165564    -0.82400
O489        O  0.21023325  0.24705171  0.51888589    -0.85100
C490        C  0.20535467  0.24416875  0.53548051     1.02600
O491        O  0.20477599  0.22768360  0.54184966    -0.77800
O492        O  0.17556380  0.21109825  0.52366180    -0.78000
C493        C  0.16586365  0.20560566  0.51016885     1.02600
O494        O  0.20822786  0.17689846  0.49196146    -0.85300
O495        O  0.22348401  0.20499509  0.47084051    -0.82400
C496        C  0.24024448  0.20668587  0.47616731     0.98100
O497        O  0.24374157  0.21278355  0.49222583    -0.82400
O498        O  0.23930886  0.22181932  0.52925550    -0.85000
C499        C  0.23978853  0.20621664  0.53745127     1.02600
O500        O  0.22672491  0.19473708  0.53528710    -0.77900
O501        O  0.19654621  0.17673487  0.52002590    -0.78000
C502        C  0.20342836  0.16802695  0.50633639     1.02600
Cr503      Cr  0.19966783  0.20242632  0.48578610     1.93700
Cr504      Cr  0.22632256  0.22920656  0.50557844     1.93200
Cr505      Cr  0.20144522  0.20317294  0.52846862     1.39100
O506        O  0.20909935  0.21159285  0.50658805    -1.23100
O507        O  0.01627966  0.22973217  0.52172988    -0.85300
O508        O  0.02287893  0.26310862  0.53791197    -0.82400
C509        C  0.02292043  0.28033228  0.54083470     0.98100
O510        O  0.01091755  0.29046269  0.53310343    -0.82400
O511        O  0.02153433  0.28747953  0.49624109    -0.85100
C512        C  0.02329752  0.28118893  0.47994203     1.02600
O513        O  0.01211169  0.26888064  0.47396041    -0.77800
O514        O  0.02076959  0.23779264  0.49282467    -0.78000
C515        C  0.02655096  0.23000133  0.50736301     1.02600
O516        O  0.97605468  0.23687685  0.52645603    -0.85300
O517        O  0.98319568  0.26878141  0.54468227    -0.82400
C518        C  0.97143264  0.28029645  0.53817000     0.98100
O519        O  0.97323955  0.28671132  0.52192599    -0.82400
O520        O  0.98382045  0.28961119  0.48521543    -0.85000
C521        C  0.97225739  0.27907083  0.47736465     1.02600
O522        O  0.97273191  0.26182169  0.48050627    -0.77900
O523        O  0.98089600  0.22872256  0.49765383    -0.78000
C524        C  0.97077630  0.22845349  0.51212386     1.02600
Cr525      Cr  0.99948546  0.25029619  0.53098604     1.93700
Cr526      Cr  0.99741557  0.28664224  0.50915538     1.93200
Cr527      Cr  0.99667132  0.24995959  0.48795821     1.39100
O528        O  0.99781073  0.26213189  0.50936373    -1.23100
O529        O  0.81662450  0.39180883  0.63974230    -0.85300
O530        O  0.83036250  0.42106277  0.62013260    -0.82400
C531        C  0.84186588  0.43100056  0.61141050     0.98100
O532        O  0.85381669  0.42333096  0.60108257    -0.82400
O533        O  0.87701234  0.41036698  0.62847085    -0.85100
C534        C  0.88223083  0.40073841  0.64218151     1.02600
O535        O  0.87798849  0.38361428  0.64324256    -0.77800
O536        O  0.84234430  0.38589413  0.65486653    -0.78000
C537        C  0.82619974  0.39259011  0.65454720     1.02600
O538        O  0.81965002  0.36929360  0.60562289    -0.85300
O539        O  0.82984349  0.39941533  0.58585524    -0.82400
C540        C  0.84222351  0.39239380  0.57542523     0.98100
O541        O  0.85800316  0.38840160  0.58193595    -0.82400
O542        O  0.88500145  0.37766439  0.60680301    -0.85000
C543        C  0.88131561  0.36046844  0.60791433     1.02600
O544        O  0.86694564  0.35533906  0.61643641    -0.77900
O545        O  0.83174037  0.35537795  0.62972759    -0.78000
C546        C  0.82330594  0.35451727  0.61428352     1.02600
Cr547      Cr  0.82567340  0.39485170  0.61330963     1.93700
Cr548      Cr  0.86715924  0.39916421  0.60546556     1.93200
Cr549      Cr  0.85426247  0.37124910  0.63490234     1.39100
O550        O  0.84897708  0.38842672  0.61800033    -1.23100
O551        O  0.59913226  0.82525902  0.64070659    -0.85300
O552        O  0.58048622  0.83527257  0.60944729    -0.82400
C553        C  0.56943720  0.84819222  0.61422378     0.98100
O554        O  0.57560443  0.86391670  0.61891689    -0.82400
O555        O  0.59952941  0.89025536  0.63275188    -0.85100
C556        C  0.59897001  0.88548597  0.64968632     1.02600
O557        O  0.60780205  0.87145204  0.65523976    -0.77800
O558        O  0.62334790  0.83684660  0.65475800    -0.78000
C559        C  0.60837811  0.82762256  0.65535473     1.02600
O560        O  0.63421104  0.82329153  0.62003807    -0.85300
O561        O  0.61571452  0.83617462  0.58965146    -0.82400
C562        C  0.60775192  0.84776912  0.57925542     0.98100
O563        O  0.59770521  0.86043642  0.58607400    -0.82400
O564        O  0.62361147  0.88312440  0.60137147    -0.85000
C565        C  0.63635342  0.88866724  0.61194673     1.02600
O566        O  0.63588010  0.88488703  0.62915459    -0.77900
O567        O  0.64847051  0.84958401  0.62587489    -0.78000
C568        C  0.64884345  0.83324188  0.61969963     1.02600
Cr569      Cr  0.60773376  0.83158514  0.61551052     1.93700
Cr570      Cr  0.59998074  0.87318156  0.61065554     1.93200
Cr571      Cr  0.62773658  0.86028012  0.64006216     1.39100
O572        O  0.61177487  0.85493275  0.62206058    -1.23100
O573        O  0.36541736  0.81825118  0.61998348    -0.85300
O574        O  0.38393731  0.83153601  0.58946564    -0.82400
C575        C  0.39269169  0.84259679  0.57902144     0.98100
O576        O  0.40290825  0.85503288  0.58604782    -0.82400
O577        O  0.37592155  0.87839907  0.59918067    -0.85100
C578        C  0.36238522  0.88387704  0.60888410     1.02600
O579        O  0.36170159  0.87981642  0.62605367    -0.77800
O580        O  0.35059289  0.84413115  0.62532771    -0.78000
C581        C  0.35052546  0.82769312  0.61951912     1.02600
O582        O  0.40021799  0.82214251  0.64118209    -0.85300
O583        O  0.41894401  0.83161342  0.60998098    -0.82400
C584        C  0.42977629  0.84430109  0.61579314     0.98100
O585        O  0.42330596  0.86010041  0.61986579    -0.82400
O586        O  0.39866955  0.88726396  0.63084168    -0.85000
C587        C  0.39756489  0.88416290  0.64810968     1.02600
O588        O  0.38927062  0.86995093  0.65399503    -0.77900
O589        O  0.37660639  0.83457046  0.65552504    -0.78000
C590        C  0.39183268  0.82566068  0.65610266     1.02600
Cr591      Cr  0.39167972  0.82749062  0.61565952     1.93700
Cr592      Cr  0.39929272  0.86889533  0.60989246     1.93200
Cr593      Cr  0.37072474  0.85657920  0.63898441     1.39100
O594        O  0.38719560  0.85094795  0.62157048    -1.23100
O595        O  0.81821579  0.63482832  0.62042492    -0.85300
O596        O  0.83144786  0.61585782  0.58994040    -0.82400
C597        C  0.84227128  0.60646954  0.57987891     0.98100
O598        O  0.85456082  0.59640113  0.58742439    -0.82400
O599        O  0.87827747  0.62324881  0.59991171    -0.85100
C600        C  0.88444016  0.63678079  0.60910328     1.02600
O601        O  0.87998607  0.63860042  0.62614078    -0.77800
O602        O  0.84421306  0.64959763  0.62524330    -0.78000
C603        C  0.82775378  0.64964366  0.61952688     1.02600
O604        O  0.82175388  0.60047702  0.64186432    -0.85300
O605        O  0.83113263  0.58134478  0.61093536    -0.82400
C606        C  0.84361106  0.57046397  0.61701346     0.98100
O607        O  0.85926986  0.57676488  0.62180188    -0.82400
O608        O  0.88697349  0.60145730  0.63210111    -0.85000
C609        C  0.88423554  0.60320154  0.64935378     1.02600
O610        O  0.87000299  0.61156097  0.65502208    -0.77900
O611        O  0.83453857  0.62416733  0.65597390    -0.78000
C612        C  0.82513248  0.60917797  0.65662369     1.02600
Cr613      Cr  0.82728583  0.60860323  0.61632183     1.93700
Cr614      Cr  0.86848411  0.60039508  0.61120785     1.93200
Cr615      Cr  0.85662154  0.62979004  0.63939662     1.39100
O616        O  0.85076404  0.61299075  0.62238518    -1.23100
O617        O  0.82318281  0.59565473  0.38013722    -0.85300
O618        O  0.83622476  0.57744620  0.41037059    -0.82400
C619        C  0.84851454  0.56713244  0.40314487     0.98100
O620        O  0.86343882  0.57417791  0.39728901    -0.82400
O621        O  0.88767405  0.59938743  0.38210472    -0.85100
C622        C  0.88208134  0.60073776  0.36545483     1.02600
O623        O  0.86715590  0.60903305  0.36176502    -0.77800
O624        O  0.83170207  0.62105308  0.36594262    -0.78000
C625        C  0.82436572  0.60502647  0.36540659     1.02600
O626        O  0.81990176  0.63028096  0.40164880    -0.85300
O627        O  0.83677280  0.61212255  0.43034728    -0.82400
C628        C  0.84917595  0.60411297  0.43972703     0.98100
O629        O  0.86201947  0.59517258  0.43160444    -0.82400
O630        O  0.88356479  0.62186415  0.41470643    -0.85000
C631        C  0.88800069  0.63497468  0.40395139     1.02600
O632        O  0.88056047  0.63655705  0.38804429    -0.77900
O633        O  0.84466604  0.64658042  0.39492828    -0.78000
C634        C  0.82874463  0.64557605  0.40218205     1.02600
Cr635      Cr  0.83055818  0.60440969  0.40492571     1.93700
Cr636      Cr  0.87268511  0.59851099  0.40577233     1.93200
Cr637      Cr  0.85575209  0.62712961  0.37895897     1.39100
O638        O  0.85305623  0.61012524  0.39665589    -1.23100
O639        O  0.40009526  0.63465123  0.82705532    -0.85300
O640        O  0.41724507  0.60303989  0.83818640    -0.82400
C641        C  0.42781139  0.60900343  0.85098896     0.98100
O642        O  0.42103581  0.61350984  0.86653330    -0.82400
O643        O  0.39591426  0.62639369  0.89228149    -0.85100
C644        C  0.39585641  0.64362988  0.88888854     1.02600
O645        O  0.38857914  0.64955555  0.87408743    -0.77800
O646        O  0.37620595  0.64972588  0.83804217    -0.78000
C647        C  0.39167490  0.64978298  0.82962688     1.02600
O648        O  0.36475515  0.61466624  0.82303152    -0.85300
O649        O  0.38165398  0.58361070  0.83747229    -0.82400
C650        C  0.38968982  0.57319236  0.84907296     0.98100
O651        O  0.39924682  0.58033918  0.86193963    -0.82400
O652        O  0.37207960  0.59557370  0.88394809    -0.85000
C653        C  0.35944972  0.60645146  0.88932480     1.02600
O654        O  0.35955427  0.62344495  0.88453962    -0.77900
O655        O  0.34913883  0.62108578  0.84826259    -0.78000
C656        C  0.34962020  0.61448266  0.83205378     1.02600
Cr657      Cr  0.39044363  0.60955656  0.83304004     1.93700
Cr658      Cr  0.39626547  0.60481317  0.87479415     1.93200
Cr659      Cr  0.36951331  0.63467420  0.86075301     1.39100
O660        O  0.38536610  0.61637935  0.85614477    -1.23100
O661        O  0.63026411  0.60039397  0.83010935    -0.85300
O662        O  0.59860480  0.58176373  0.83920903    -0.82400
C663        C  0.60341607  0.57061584  0.85208323     0.98100
O664        O  0.60775521  0.57678334  0.86788511    -0.82400
O665        O  0.61992618  0.60034346  0.89523041    -0.85100
C666        C  0.63716473  0.60027267  0.89182061     1.02600
O667        O  0.64325265  0.60884715  0.87782382    -0.77800
O668        O  0.64459309  0.62376719  0.84303625    -0.78000
C669        C  0.64517405  0.60884759  0.83374628     1.02600
O670        O  0.60945514  0.63583895  0.82766661    -0.85300
O671        O  0.57875270  0.61699407  0.83969254    -0.82400
C672        C  0.56794321  0.60850718  0.85055799     0.98100
O673        O  0.57464067  0.59820562  0.86316568    -0.82400
O674        O  0.58891462  0.62412526  0.88701024    -0.85000
C675        C  0.59919792  0.63689965  0.89308200     1.02600
O676        O  0.61646434  0.63688507  0.88940444    -0.77900
O677        O  0.61540439  0.64944777  0.85410567    -0.78000
C678        C  0.60912916  0.65029063  0.83786109     1.02600
Cr679      Cr  0.60482892  0.60911343  0.83576835     1.93700
Cr680      Cr  0.59872559  0.60077160  0.87703751     1.93200
Cr681      Cr  0.62869000  0.62859196  0.86554408     1.39100
O682        O  0.61075001  0.61285485  0.85936457    -1.23100
O683        O  0.63011313  0.81950389  0.40012833    -0.85300
O684        O  0.61226987  0.83470200  0.43010971    -0.82400
C685        C  0.60386297  0.84646497  0.43998048     0.98100
O686        O  0.59410447  0.85887645  0.43226712    -0.82400
O687        O  0.62168076  0.88099765  0.41875624    -0.85100
C688        C  0.63553411  0.88588800  0.40927958     1.02600
O689        O  0.63697929  0.88084734  0.39236755    -0.77800
O690        O  0.64649044  0.84453875  0.39441103    -0.78000
C691        C  0.64549024  0.82815361  0.40040093     1.02600
O692        O  0.59573570  0.82442898  0.37887096    -0.85300
O693        O  0.57748780  0.83562663  0.40957087    -0.82400
C694        C  0.56728175  0.84835255  0.40285604     0.98100
O695        O  0.57447741  0.86353678  0.39776328    -0.82400
O696        O  0.60048770  0.88938667  0.38641400    -0.85000
C697        C  0.60142751  0.88534701  0.36938444     1.02600
O698        O  0.60928986  0.87068343  0.36425345    -0.77900
O699        O  0.62045431  0.83491756  0.36444169    -0.78000
C700        C  0.60462936  0.82705030  0.36403267     1.02600
Cr701      Cr  0.60445026  0.83008125  0.40412933     1.93700
Cr702      Cr  0.59851430  0.87182253  0.40797368     1.93200
Cr703      Cr  0.62715269  0.85738044  0.38007120     1.39100
O704        O  0.61018705  0.85306558  0.39740038    -1.23100
O705        O  0.61038772  0.36599910  0.82938177    -0.85300
O706        O  0.58042563  0.38483801  0.84293838    -0.82400
C707        C  0.57030768  0.39425532  0.85358136     0.98100
O708        O  0.57776425  0.40452489  0.86580373    -0.82400
O709        O  0.59238680  0.37852448  0.88957135    -0.85100
C710        C  0.60247618  0.36536572  0.89516589     1.02600
O711        O  0.61956309  0.36470591  0.89071581    -0.77800
O712        O  0.61717382  0.35220718  0.85553473    -0.78000
C713        C  0.61024870  0.35154870  0.83955668     1.02600
O714        O  0.63116495  0.40094910  0.83072959    -0.85300
O715        O  0.60046806  0.41988990  0.84105923    -0.82400
C716        C  0.60687043  0.43109244  0.85311998     0.98100
O717        O  0.61181786  0.42523949  0.86888751    -0.82400
O718        O  0.62423835  0.40143164  0.89631700    -0.85000
C719        C  0.64140230  0.40057052  0.89254144     1.02600
O720        O  0.64670252  0.39222537  0.87818634    -0.77900
O721        O  0.64639614  0.37790691  0.84326182    -0.78000
C722        C  0.64619600  0.39255529  0.83335906     1.02600
Cr723      Cr  0.60622046  0.39253711  0.83765209     1.93700
Cr724      Cr  0.60238210  0.40152724  0.87887283     1.93200
Cr725      Cr  0.63120894  0.37291672  0.86641071     1.39100
O726        O  0.61331152  0.38893849  0.86093073    -1.23100
O727        O  0.61092129  0.18380266  0.37228184    -0.85300
O728        O  0.58038406  0.17021531  0.39080903    -0.82400
C729        C  0.57019056  0.15912702  0.39980551     0.98100
O730        O  0.57734802  0.14598513  0.40899682    -0.82400
O731        O  0.59020728  0.12353304  0.38096041    -0.85100
C732        C  0.59996098  0.11806111  0.36744651     1.02600
O733        O  0.61710925  0.12216240  0.36684754    -0.77800
O734        O  0.61585216  0.15828201  0.35663986    -0.78000
C735        C  0.61000589  0.17474961  0.35721698     1.02600
O736        O  0.63217633  0.17887842  0.40666742    -0.85300
O737        O  0.60116130  0.16884363  0.42517309    -0.82400
C738        C  0.60672564  0.15585894  0.43572923     0.98100
O739        O  0.61105565  0.14028096  0.42887934    -0.82400
O740        O  0.62197941  0.11405549  0.40306925    -0.85000
C741        C  0.63923299  0.11715426  0.40244102     1.02600
O742        O  0.64511496  0.13164642  0.39453241    -0.77900
O743        O  0.64589927  0.16746947  0.38221130    -0.78000
C744        C  0.64686399  0.17561618  0.39776400     1.02600
Cr745      Cr  0.60667887  0.17385531  0.39820066     1.93700
Cr746      Cr  0.60102972  0.13226171  0.40458650     1.93200
Cr747      Cr  0.62981114  0.14536362  0.37624433     1.39100
O748        O  0.61252576  0.15055138  0.39296503    -1.23100
O749        O  0.38908385  0.82152580  0.37504532    -0.85300
O750        O  0.41776750  0.83617386  0.39515658    -0.82400
C751        C  0.42720627  0.84795084  0.40404105     0.98100
O752        O  0.41902352  0.86030778  0.41346608    -0.82400
O753        O  0.40484355  0.88299769  0.38631258    -0.85100
C754        C  0.39484259  0.88883624  0.37318733     1.02600
O755        O  0.37829058  0.88292712  0.37137763    -0.77800
O756        O  0.38368117  0.84749638  0.36001616    -0.78000
C757        C  0.39068574  0.83149804  0.36054433     1.02600
O758        O  0.36617192  0.82364516  0.40874485    -0.85300
O759        O  0.39570613  0.83504405  0.42902242    -0.82400
C760        C  0.38853389  0.84731441  0.43945695     0.98100
O761        O  0.38395596  0.86281036  0.43266176    -0.82400
O762        O  0.37171020  0.88859455  0.40758163    -0.85000
C763        C  0.35487386  0.88371170  0.40633872     1.02600
O764        O  0.35046927  0.86927653  0.39755190    -0.77900
O765        O  0.35301521  0.83437578  0.38358254    -0.78000
C766        C  0.35193285  0.82548733  0.39881148     1.02600
Cr767      Cr  0.39161333  0.83062648  0.40154117     1.93700
Cr768      Cr  0.39419837  0.87231024  0.40910033     1.93200
Cr769      Cr  0.36752704  0.85809589  0.37929950     1.39100
O770        O  0.38448157  0.85364380  0.39659275    -1.23100
O771        O  0.17633142  0.60940679  0.63972438    -0.85300
O772        O  0.16090991  0.57913436  0.62241433    -0.82400
C773        C  0.14908022  0.56899236  0.61444555     0.98100
O774        O  0.13590294  0.57647161  0.60553936    -0.82400
O775        O  0.11566152  0.59110721  0.63432523    -0.85100
C776        C  0.11137835  0.60161738  0.64764964     1.02600
O777        O  0.11547836  0.61878922  0.64720518    -0.77800
O778        O  0.15172616  0.61642576  0.65607198    -0.78000
C779        C  0.16788157  0.60996394  0.65524688     1.02600
O780        O  0.17114265  0.63018270  0.60475650    -0.85300
O781        O  0.15876397  0.59930446  0.58739863    -0.82400
C782        C  0.14543618  0.60555991  0.57761001     0.98100
O783        O  0.13031479  0.61018793  0.58514346    -0.82400
O784        O  0.10599711  0.62258930  0.61186783    -0.85000
C785        C  0.10999962  0.63969316  0.61151995     1.02600
O786        O  0.12520956  0.64522859  0.61807632    -0.77900
O787        O  0.16131135  0.64527761  0.62918072    -0.78000
C788        C  0.16908344  0.64524113  0.61338062     1.02600
Cr789      Cr  0.16529404  0.60508919  0.61413942     1.93700
Cr790      Cr  0.12331942  0.60090551  0.60997828     1.93200
Cr791      Cr  0.13879957  0.63018848  0.63646305     1.39100
O792        O  0.14256573  0.61207470  0.62023834    -1.23100
O793        O  0.38737863  0.18214879  0.64304679    -0.85300
O794        O  0.41755793  0.16918833  0.62457332    -0.82400
C795        C  0.42790140  0.15838236  0.61564712     0.98100
O796        O  0.42070403  0.14572045  0.60583054    -0.82400
O797        O  0.40625653  0.12284646  0.63295722    -0.85100
C798        C  0.39562489  0.11717113  0.64571120     1.02600
O799        O  0.37837462  0.12088509  0.64523996    -0.77800
O800        O  0.38020519  0.15618189  0.65721570    -0.78000
C801        C  0.38751306  0.17207042  0.65756230     1.02600
O802        O  0.36675194  0.18004593  0.60782433    -0.85300
O803        O  0.39742993  0.16967135  0.58938142    -0.82400
C804        C  0.39121490  0.15704188  0.57868013     0.98100
O805        O  0.38735496  0.14112548  0.58500127    -0.82400
O806        O  0.37514910  0.11450419  0.60943333    -0.85000
C807        C  0.35811029  0.11863941  0.60855075     1.02600
O808        O  0.35227236  0.13297566  0.61656812    -0.77900
O809        O  0.35147382  0.16782059  0.63100199    -0.78000
C810        C  0.35168647  0.17737086  0.61615878     1.02600
Cr811      Cr  0.39172188  0.17370960  0.61663388     1.93700
Cr812      Cr  0.39657695  0.13228620  0.60917092     1.93200
Cr813      Cr  0.36676707  0.14494770  0.63642000     1.39100
O814        O  0.38501741  0.15042199  0.62080025    -1.23100
O815        O  0.81908955  0.36437594  0.39436706    -0.85300
O816        O  0.83235702  0.38111894  0.42584043    -0.82400
C817        C  0.84375317  0.38892375  0.43661713     0.98100
O818        O  0.85612741  0.39956838  0.42995569    -0.82400
O819        O  0.87933176  0.37316934  0.41586653    -0.85100
C820        C  0.88468912  0.35989101  0.40580728     1.02600
O821        O  0.88073594  0.35974438  0.38859727    -0.77800
O822        O  0.84491919  0.34927413  0.38956450    -0.78000
C823        C  0.82838610  0.34943074  0.39506010     1.02600
O824        O  0.82356581  0.39974851  0.37493050    -0.85300
O825        O  0.83320408  0.41692899  0.40700539    -0.82400
C826        C  0.84584136  0.42758312  0.40078441     0.98100
O827        O  0.86153633  0.42116376  0.39647856    -0.82400
O828        O  0.88833223  0.39682155  0.38463424    -0.85000
C829        C  0.88500998  0.39650053  0.36734568     1.02600
O830        O  0.87075883  0.38834653  0.36144947    -0.77900
O831        O  0.83534316  0.37588303  0.36019786    -0.78000
C832        C  0.82662255  0.39122213  0.35999300     1.02600
Cr833      Cr  0.82862891  0.39011965  0.40004709     1.93700
Cr834      Cr  0.87008527  0.39689251  0.40587277     1.93200
Cr835      Cr  0.85745965  0.36941831  0.37615924     1.39100
O836        O  0.85202797  0.38543227  0.39397941    -1.23100
O837        O  0.17734763  0.63389394  0.39834670    -0.85300
O838        O  0.16153936  0.61535030  0.42773691    -0.82400
C839        C  0.14980218  0.60651085  0.43729239     0.98100
O840        O  0.13744136  0.59704952  0.42910401    -0.82400
O841        O  0.11604417  0.62521508  0.41458659    -0.85100
C842        C  0.11143758  0.63875796  0.40438631     1.02600
O843        O  0.11659416  0.63932795  0.38749509    -0.77800
O844        O  0.15256767  0.64955778  0.39058477    -0.78000
C845        C  0.16838387  0.64908497  0.39800439     1.02600
O846        O  0.17423655  0.59936953  0.37684277    -0.85300
O847        O  0.16170059  0.58080388  0.40675010    -0.82400
C848        C  0.14927788  0.57069202  0.39930225     0.98100
O849        O  0.13390410  0.57758817  0.39453382    -0.82400
O850        O  0.10835814  0.60317882  0.38236299    -0.85000
C851        C  0.11287797  0.60279619  0.36539350     1.02600
O852        O  0.12753874  0.61091572  0.36036980    -0.77900
O853        O  0.16323149  0.62307976  0.36136010    -0.78000
C854        C  0.17157490  0.60756485  0.36160838     1.02600
Cr855      Cr  0.16717021  0.60791340  0.40180091     1.93700
Cr856      Cr  0.12531813  0.60161502  0.40440215     1.93200
Cr857      Cr  0.14036666  0.62958683  0.37618917     1.39100
O858        O  0.14437560  0.61316638  0.39413394    -1.23100
O859        O  0.18016352  0.36795774  0.61758707    -0.85300
O860        O  0.16462438  0.38392354  0.58659642    -0.82400
C861        C  0.15286879  0.39186073  0.57632006     0.98100
O862        O  0.13948641  0.40067868  0.58350761    -0.82400
O863        O  0.11895921  0.37231227  0.59856476    -0.85100
C864        C  0.11434599  0.35906481  0.60910868     1.02600
O865        O  0.11928439  0.35903235  0.62607594    -0.77800
O866        O  0.15587503  0.35091013  0.62421947    -0.78000
C867        C  0.17201026  0.35231873  0.61767514     1.02600
O868        O  0.17409134  0.40286781  0.63726458    -0.85300
O869        O  0.16196294  0.41937071  0.60582171    -0.82400
C870        C  0.14877419  0.42907733  0.61234961     0.98100
O871        O  0.13365968  0.42149704  0.61694585    -0.82400
O872        O  0.10917091  0.39503191  0.62966885    -0.85000
C873        C  0.11306384  0.39555396  0.64680404     1.02600
O874        O  0.12809702  0.38869758  0.65238250    -0.77900
O875        O  0.16436265  0.37876299  0.65297013    -0.78000
C876        C  0.17205499  0.39468806  0.65257872     1.02600
Cr877      Cr  0.16866803  0.39292992  0.61238200     1.93700
Cr878      Cr  0.12670924  0.39663466  0.60800450     1.93200
Cr879      Cr  0.14227214  0.37045618  0.63765099     1.39100
O880        O  0.14594286  0.38657373  0.61935190    -1.23100
O881        O  0.62984904  0.18466304  0.61567420    -0.85300
O882        O  0.61178326  0.17047881  0.58554562    -0.82400
C883        C  0.60309369  0.15927794  0.57530550     0.98100
O884        O  0.59395098  0.14614588  0.58253709    -0.82400
O885        O  0.62256221  0.12497091  0.59625938    -0.85100
C886        C  0.63576861  0.12000249  0.60663449     1.02600
O887        O  0.63537828  0.12337243  0.62394223    -0.77800
O888        O  0.64539579  0.15945837  0.62264797    -0.78000
C889        C  0.64500080  0.17563320  0.61598592     1.02600
O890        O  0.59510270  0.18047708  0.63684501    -0.85300
O891        O  0.57702108  0.16891295  0.60622749    -0.82400
C892        C  0.56697701  0.15572304  0.61244679     0.98100
O893        O  0.57402729  0.14010583  0.61615472    -0.82400
O894        O  0.59997399  0.11451942  0.62760991    -0.85000
C895        C  0.59934990  0.11792687  0.64481207     1.02600
O896        O  0.60644793  0.13277062  0.65080743    -0.77900
O897        O  0.61879919  0.16874207  0.65173779    -0.78000
C898        C  0.60357968  0.17754099  0.65185328     1.02600
Cr899      Cr  0.60394309  0.17454956  0.61161946     1.93700
Cr900      Cr  0.59845214  0.13274570  0.60648878     1.93200
Cr901      Cr  0.62535083  0.14654161  0.63609768     1.39100
O902        O  0.60926671  0.15140815  0.61813738    -1.23100
O903        O  0.36792168  0.40302652  0.83008658    -0.85300
O904        O  0.39808598  0.42312070  0.83996058    -0.82400
C905        C  0.39112127  0.43355411  0.85239591     0.98100
O906        O  0.38803398  0.42720807  0.86848222    -0.82400
O907        O  0.37763628  0.40228945  0.89562489    -0.85100
C908        C  0.36049553  0.40203565  0.89194624     1.02600
O909        O  0.35481499  0.39328510  0.87793232    -0.77800
O910        O  0.35425792  0.37904503  0.84292937    -0.78000
C911        C  0.35336134  0.39386347  0.83339808     1.02600
O912        O  0.39013725  0.36907669  0.82764372    -0.85300
O913        O  0.42002682  0.38881439  0.84039072    -0.82400
C914        C  0.43009195  0.39735133  0.85190213     0.98100
O915        O  0.42264565  0.40776612  0.86388140    -0.82400
O916        O  0.40977160  0.38030210  0.88712815    -0.85000
C917        C  0.39995398  0.36709631  0.89323340     1.02600
O918        O  0.38277499  0.36620483  0.88929624    -0.77900
O919        O  0.38468811  0.35439717  0.85370861    -0.78000
C920        C  0.39104886  0.35440049  0.83740751     1.02600
Cr921      Cr  0.39358326  0.39558952  0.83613265     1.93700
Cr922      Cr  0.39873038  0.40352163  0.87749899     1.93200
Cr923      Cr  0.37031975  0.37441822  0.86544247     1.39100
O924        O  0.38751575  0.39112622  0.85959641    -1.23100
O925        O  0.59521285  0.62926667  0.18727593    -0.85300
O926        O  0.57950890  0.59692910  0.17550708    -0.82400
C927        C  0.56902191  0.60187296  0.16223307     0.98100
O928        O  0.57606362  0.60730936  0.14705049    -0.82400
O929        O  0.60160699  0.62215485  0.12230197    -0.85100
C930        C  0.60087852  0.63928701  0.12625490     1.02600
O931        O  0.60786139  0.64505021  0.14119089    -0.77800
O932        O  0.61910280  0.64510785  0.17737767    -0.78000
C933        C  0.60327195  0.64466319  0.18510975     1.02600
O934        O  0.63106206  0.61032403  0.19232696    -0.85300
O935        O  0.61536184  0.57900501  0.17739853    -0.82400
C936        C  0.60849382  0.56855735  0.16512082     0.98100
O937        O  0.59899538  0.57539904  0.15204163    -0.82400
O938        O  0.62625042  0.59192967  0.13146623    -0.85000
C939        C  0.63913282  0.60297429  0.12706178     1.02600
O940        O  0.63800384  0.62004437  0.13130352    -0.77900
O941        O  0.64694946  0.61748272  0.16745709    -0.78000
C942        C  0.64627266  0.61038646  0.18341932     1.02600
Cr943      Cr  0.60577826  0.60454207  0.18158514     1.93700
Cr944      Cr  0.60146042  0.60012577  0.13955099     1.93200
Cr945      Cr  0.62682731  0.63063993  0.15474498     1.39100
O946        O  0.61131261  0.61180929  0.15868197    -1.23100
O947        O  0.36506143  0.60894544  0.18995701    -0.85300
O948        O  0.38384727  0.57827862  0.17736736    -0.82400
C949        C  0.39285435  0.56786679  0.16659347     0.98100
O950        O  0.40257524  0.57503766  0.15381078    -0.82400
O951        O  0.37554136  0.58819686  0.13041885    -0.85100
C952        C  0.36255861  0.59828660  0.12436526     1.02600
O953        O  0.36221552  0.61546882  0.12825741    -0.77800
O954        O  0.35039746  0.61424972  0.16390678    -0.78000
C955        C  0.35029255  0.60824955  0.18036106     1.02600
O956        O  0.39970770  0.63014698  0.18678680    -0.85300
O957        O  0.41854139  0.59877035  0.17712204    -0.82400
C958        C  0.42926166  0.60430266  0.16420974     0.98100
O959        O  0.42289781  0.60867953  0.14848474    -0.82400
O960        O  0.39842494  0.61972556  0.12143977    -0.85000
C961        C  0.39826180  0.63695581  0.12484595     1.02600
O962        O  0.38986073  0.64290687  0.13892988    -0.77900
O963        O  0.37594486  0.64418534  0.17387061    -0.78000
C964        C  0.39082550  0.64480391  0.18324153     1.02600
Cr965      Cr  0.39136190  0.60456261  0.18119759     1.93700
Cr966      Cr  0.39893833  0.59877961  0.13982491     1.93200
Cr967      Cr  0.37073024  0.62798270  0.15176961     1.39100
O968        O  0.38697852  0.61048426  0.15768992    -1.23100
O969        O  0.63381334  0.38914878  0.19138800    -0.85300
O970        O  0.61448791  0.41883934  0.17793516    -0.82400
C971        C  0.60581344  0.42900850  0.16664647     0.98100
O972        O  0.59551076  0.42173159  0.15441883    -0.82400
O973        O  0.62306229  0.40920588  0.13131675    -0.85100
C974        C  0.63661796  0.39976306  0.12548918     1.02600
O975        O  0.63782599  0.38263903  0.12970421    -0.77800
O976        O  0.64890029  0.38424721  0.16548038    -0.78000
C977        C  0.64868723  0.39012282  0.18192251     1.02600
O978        O  0.59975399  0.36680149  0.18788761    -0.85300
O979        O  0.57991543  0.39732746  0.17779352    -0.82400
C980        C  0.56947602  0.39112004  0.16493246     0.98100
O981        O  0.57623730  0.38709048  0.14927960    -0.82400
O982        O  0.60153204  0.37671633  0.12259428    -0.85000
C983        C  0.60261657  0.35952247  0.12610687     1.02600
O984        O  0.61092440  0.35403428  0.14044323    -0.77900
O985        O  0.62421142  0.35355304  0.17558753    -0.78000
C986        C  0.60915185  0.35240703  0.18469002     1.02600
Cr987      Cr  0.60740666  0.39255738  0.18218136     1.93700
Cr988      Cr  0.59997752  0.39784934  0.14070652     1.93200
Cr989      Cr  0.62924850  0.36980126  0.15328474     1.39100
O990        O  0.61224134  0.38668198  0.15879705    -1.23100
O991        O  0.17040478  0.40119288  0.37512722    -0.85300
O992        O  0.16026726  0.42012128  0.40625423    -0.82400
C993        C  0.14753364  0.43074296  0.40030326     0.98100
O994        O  0.13208496  0.42394890  0.39569217    -0.82400
O995        O  0.10606481  0.39943570  0.38302223    -0.85100
C996        C  0.11037054  0.39839640  0.36599886     1.02600
O997        O  0.12445384  0.38940301  0.36101564    -0.77800
O998        O  0.15954510  0.37614323  0.36171153    -0.78000
C999        C  0.16837746  0.39141691  0.36080066     1.02600
O1000       O  0.17420765  0.36682678  0.39647841    -0.85300
O1001       O  0.16060224  0.38550635  0.42660251    -0.82400
C1002       C  0.14898007  0.39354376  0.43686933     0.98100
O1003       O  0.13583663  0.40296328  0.42989094    -0.82400
O1004       O  0.11270006  0.37693775  0.41539407    -0.85000
C1005       C  0.10701860  0.36378077  0.40543372     1.02600
O1006       O  0.11251383  0.36214354  0.38873735    -0.77900
O1007       O  0.14850041  0.35120433  0.39199591    -0.78000
C1008       C  0.16503472  0.35177600  0.39767135     1.02600
Cr1009     Cr  0.16473566  0.39295675  0.40057826     1.93700
Cr1010     Cr  0.12306159  0.39993584  0.40517303     1.93200
Cr1011     Cr  0.13663852  0.37091392  0.37712590     1.39100
O1012       O  0.14147576  0.38784379  0.39437448    -1.23100
O1013       O  0.36750274  0.18237034  0.39770571    -0.85300
O1014       O  0.38517649  0.16921392  0.42852178    -0.82400
C1015       C  0.39295186  0.15782307  0.43928922     0.98100
O1016       O  0.40250614  0.14467570  0.43263603    -0.82400
O1017       O  0.37565428  0.12218270  0.41768079    -0.85100
C1018       C  0.36309852  0.11633372  0.40697014     1.02600
O1019       O  0.36339210  0.12067455  0.38985208    -0.77800
O1020       O  0.35255932  0.15656221  0.39178658    -0.78000
C1021       C  0.35264172  0.17279678  0.39827842     1.02600
O1022       O  0.40311892  0.17845007  0.37742524    -0.85300
O1023       O  0.42051137  0.16829192  0.40917388    -0.82400
C1024       C  0.43102550  0.15516875  0.40382520     0.98100
O1025       O  0.42428951  0.13949477  0.39990637    -0.82400
O1026       O  0.39970487  0.11365645  0.38683646    -0.85000
C1027       C  0.40021079  0.11743336  0.36967259     1.02600
O1028       O  0.39233275  0.13187340  0.36375459    -0.77900
O1029       O  0.37904519  0.16721478  0.36292798    -0.78000
C1030       C  0.39462426  0.17542201  0.36244139     1.02600
Cr1031     Cr  0.39361742  0.17302955  0.40264906     1.93700
Cr1032     Cr  0.39970252  0.13131616  0.40840074     1.93200
Cr1033     Cr  0.37294258  0.14455352  0.37830538     1.39100
O1034       O  0.38873414  0.14970248  0.39647890    -1.23100
O1035       O  0.38710790  0.36384989  0.18553584    -0.85300
O1036       O  0.41878570  0.38150146  0.17374136    -0.82400
C1037       C  0.42968646  0.38978498  0.16273783     0.98100
O1038       O  0.42312543  0.40085412  0.15078852    -0.82400
O1039       O  0.40821172  0.37512010  0.12689307    -0.85100
C1040       C  0.39720633  0.36319267  0.12028880     1.02600
O1041       O  0.37994948  0.36394037  0.12384460    -0.77800
O1042       O  0.38058289  0.35071665  0.15888126    -0.78000
C1043       C  0.38722170  0.34967279  0.17502909     1.02600
O1044       O  0.36771549  0.40000071  0.18369229    -0.85300
O1045       O  0.39987610  0.41737793  0.17464018    -0.82400
C1046       C  0.39433198  0.42866369  0.16220815     0.98100
O1047       O  0.39057395  0.42306344  0.14605253    -0.82400
O1048       O  0.37824971  0.40001645  0.11840295    -0.85000
C1049       C  0.36107052  0.40121009  0.12171797     1.02600
O1050       O  0.35449337  0.39303919  0.13577121    -0.77900
O1051       O  0.35229069  0.37749063  0.17039698    -0.78000
C1052       C  0.35244086  0.39222276  0.18002567     1.02600
Cr1053     Cr  0.39284213  0.39033749  0.17785457     1.93700
Cr1054     Cr  0.39916669  0.39891172  0.13676239     1.93200
Cr1055     Cr  0.36805245  0.37233636  0.14781273     1.39100
O1056       O  0.38667258  0.38714254  0.15425393    -1.23100
C1057       C  0.45020079  0.38737839  0.16415468    -0.12000
C1058       C  0.46200409  0.39009425  0.14860166     0.03500
C1059       C  0.48129717  0.38908564  0.15069012    -0.12500
C1060       C  0.48937163  0.38515527  0.16796135     0.18400
C1061       C  0.47774533  0.38176443  0.18335815    -0.09500
C1062       C  0.45834179  0.38282498  0.18137580    -0.02500
H1063       H  0.49012771  0.39147421  0.13871322     0.04900
C1064       C  0.50996243  0.38526974  0.16942002     0.20400
H1065       H  0.44963228  0.38046156  0.19343395     0.10100
C1066       C  0.51890386  0.40049280  0.17775836    -0.15900
C1067       C  0.53830638  0.40245940  0.17696430     0.03100
C1068       C  0.54914327  0.38893893  0.16776889    -0.11200
C1069       C  0.54015198  0.37346772  0.15986663    -0.01200
C1070       C  0.52078967  0.37156146  0.16063807    -0.06400
H1071       H  0.51067723  0.41131945  0.18418107     0.06100
H1072       H  0.54821656  0.36292737  0.15278848     0.09500
Br1073     Br  0.48780810  0.37539858  0.20720638    -0.06100
Br1074     Br  0.45294725  0.39440116  0.12382258    -0.03000
Br1075     Br  0.54892050  0.42488518  0.18680795    -0.00200
Br1076     Br  0.50966340  0.35015753  0.14922327    -0.04600
C1077       C  0.39289448  0.54726448  0.16875041    -0.12000
C1078       C  0.38189294  0.53751649  0.18193669     0.03500
C1079       C  0.38249035  0.51803980  0.18261066    -0.12500
C1080       C  0.39391978  0.50800255  0.17049984     0.18400
C1081       C  0.40491502  0.51755592  0.15749285    -0.09500
C1082       C  0.40440726  0.53691016  0.15676196    -0.02500
H1083       H  0.37383397  0.51064164  0.19250568     0.04900
C1084       C  0.39324618  0.48753167  0.17054455     0.20400
H1085       H  0.41299762  0.54382277  0.14648280     0.10100
C1086       C  0.37822102  0.47869579  0.16188940    -0.15900
C1087       C  0.37803734  0.45941751  0.15961826     0.03100
C1088       C  0.39308710  0.44868539  0.16619160    -0.11200
C1089       C  0.40765537  0.45746737  0.17575162    -0.01200
C1090       C  0.40787393  0.47680636  0.17786254    -0.06400
H1091       H  0.36684439  0.48689669  0.15641841     0.06100
H1092       H  0.41923343  0.44936721  0.18093129     0.09500
Br1093     Br  0.42024463  0.50473056  0.13982881    -0.06100
Br1094     Br  0.36544118  0.54941430  0.19920099    -0.03000
Br1095     Br  0.35671608  0.44853006  0.14775127    -0.00200
Br1096     Br  0.42860230  0.48807669  0.19029669    -0.04600
C1097       C  0.61047897  0.54814242  0.16634900    -0.12000
C1098       C  0.61248762  0.53713910  0.15020439     0.03500
C1099       C  0.61232741  0.51777267  0.15161293    -0.12500
C1100       C  0.61010181  0.50902671  0.16885434     0.18400
C1101       C  0.60869223  0.51985347  0.18505233    -0.09500
C1102       C  0.60902369  0.53930297  0.18373957    -0.02500
H1103       H  0.61365691  0.50945146  0.13914091     0.04900
C1104       C  0.60874771  0.48857686  0.16940290     0.20400
H1105       H  0.60740251  0.54751362  0.19624131     0.10100
C1106       C  0.62491072  0.47801565  0.17175547    -0.15900
C1107       C  0.62427335  0.45858499  0.17085286     0.03100
C1108       C  0.60712689  0.44944963  0.16795249    -0.11200
C1109       C  0.59099662  0.46012407  0.16543674    -0.01200
C1110       C  0.59172521  0.47954437  0.16604970    -0.06400
H1111       H  0.63815570  0.48495599  0.17368464     0.06100
H1112       H  0.57778370  0.45333475  0.16287741     0.09500
Br1113     Br  0.60550083  0.50859009  0.20903079    -0.06100
Br1114     Br  0.61595566  0.54755809  0.12583654    -0.03000
Br1115     Br  0.64748016  0.44550656  0.17143172    -0.00200
Br1116     Br  0.56927761  0.49325291  0.16173672    -0.04600
C1117       C  0.54840077  0.60081216  0.16411831    -0.12000
C1118       C  0.53919518  0.59665749  0.18111485     0.03500
C1119       C  0.51974027  0.59707745  0.18197417    -0.12500
C1120       C  0.50905913  0.60074925  0.16610207     0.18400
C1121       C  0.51810023  0.60379337  0.14902078    -0.09500
C1122       C  0.53748108  0.60408410  0.14820691    -0.02500
H1123       H  0.51287031  0.59452213  0.19514858     0.04900
C1124       C  0.48855359  0.60189467  0.16754508     0.20400
H1125       H  0.54400295  0.60673245  0.13488179     0.10100
C1126       C  0.47974310  0.61868316  0.16285766    -0.15900
C1127       C  0.46037762  0.61988339  0.16217151     0.03100
C1128       C  0.44949227  0.60429779  0.16692552    -0.11200
C1129       C  0.45822818  0.58781527  0.17262539    -0.01200
C1130       C  0.47762802  0.58641878  0.17271569    -0.06400
H1131       H  0.48800314  0.63073663  0.15911659     0.06100
H1132       H  0.44993586  0.57567771  0.17601543     0.09500
Br1133     Br  0.50459906  0.60681219  0.12617908    -0.06100
Br1134     Br  0.55177658  0.59007473  0.20377380    -0.03000
Br1135     Br  0.44943402  0.64304564  0.15457214    -0.00200
Br1136     Br  0.48838350  0.56264744  0.17831717    -0.04600
C1137       C  0.15477714  0.39146394  0.55584756    -0.12000
C1138       C  0.15137483  0.40752828  0.54503743     0.03500
C1139       C  0.15165633  0.40646747  0.52565744    -0.12500
C1140       C  0.15521746  0.38961281  0.51665761     0.18400
C1141       C  0.15928613  0.37367377  0.52731965    -0.09500
C1142       C  0.15915779  0.37470899  0.54680768    -0.02500
H1143       H  0.14880136  0.41886755  0.51750227     0.04900
C1144       C  0.15405281  0.38912250  0.49614752     0.20400
H1145       H  0.16190026  0.36226822  0.55490731     0.10100
C1146       C  0.16895865  0.39593210  0.48555067    -0.15900
C1147       C  0.16755502  0.39739571  0.46618665     0.03100
C1148       C  0.15094040  0.39219880  0.45720154    -0.11200
C1149       C  0.13601858  0.38543096  0.46780875    -0.01200
C1150       C  0.13751404  0.38376178  0.48714590    -0.06400
H1151       H  0.18157115  0.40046655  0.49241454     0.06100
H1152       H  0.12321059  0.38133985  0.46101637     0.09500
Br1153     Br  0.16472812  0.35027671  0.51578742    -0.06100
Br1154     Br  0.14691943  0.43150118  0.55588535    -0.03000
Br1155     Br  0.18813578  0.40787036  0.45275300    -0.00200
Br1156     Br  0.11649673  0.37457378  0.50080372    -0.04600
C1157       C  0.15220466  0.55048543  0.39739877    -0.12000
C1158       C  0.14560714  0.54049812  0.38186360     0.03500
C1159       C  0.14680742  0.52108307  0.38166056    -0.12500
C1160       C  0.15401557  0.51127074  0.39694888     0.18400
C1161       C  0.16156585  0.52135627  0.41198458    -0.09500
C1162       C  0.16077894  0.54079008  0.41198682    -0.02500
H1163       H  0.14150627  0.51353988  0.36975897     0.04900
C1164       C  0.15254028  0.49066104  0.39738404     0.20400
H1165       H  0.16600003  0.54830360  0.42394333     0.10100
C1166       C  0.16858164  0.47975619  0.39942195    -0.15900
C1167       C  0.16748978  0.46031933  0.40080327     0.03100
C1168       C  0.15002185  0.45131129  0.39935409    -0.11200
C1169       C  0.13406223  0.46236891  0.39691099    -0.01200
C1170       C  0.13513602  0.48173571  0.39616301    -0.06400
H1171       H  0.18205999  0.48644985  0.40020479     0.06100
H1172       H  0.12045059  0.45597944  0.39599173     0.09500
Br1173     Br  0.17169280  0.50944964  0.43362997    -0.06100
Br1174     Br  0.13500375  0.55255445  0.36048276    -0.03000
Br1175     Br  0.19045612  0.44732995  0.40474273    -0.00200
Br1176     Br  0.11213127  0.49521025  0.39458249    -0.04600
C1177       C  0.38945560  0.16044860  0.55846577    -0.12000
C1178       C  0.37558349  0.15155992  0.54773317     0.03500
C1179       C  0.37583159  0.15311068  0.52837957    -0.12500
C1180       C  0.38954994  0.16361106  0.51940537     0.18400
C1181       C  0.40253853  0.17363393  0.53006654    -0.09500
C1182       C  0.40244095  0.17198760  0.54946683    -0.02500
H1183       H  0.36551981  0.14572933  0.52024587     0.04900
C1184       C  0.39076225  0.16283129  0.49894693     0.20400
H1185       H  0.41296472  0.17920654  0.55746018     0.10100
C1186       C  0.37740626  0.17192000  0.48807305    -0.15900
C1187       C  0.37777611  0.17064614  0.46863900     0.03100
C1188       C  0.39174662  0.15999593  0.45978510    -0.11200
C1189       C  0.40495018  0.15077359  0.47089594    -0.01200
C1190       C  0.40449007  0.15204015  0.49024036    -0.06400
H1191       H  0.36654909  0.17990460  0.49476474     0.06100
H1192       H  0.41572667  0.14241770  0.46455067     0.09500
Br1193     Br  0.42081919  0.18937950  0.51862102    -0.06100
Br1194     Br  0.35547702  0.13771109  0.55854582    -0.03000
Br1195     Br  0.35828135  0.18307768  0.45534152    -0.00200
Br1196     Br  0.42242563  0.13808177  0.50424413    -0.04600
C1197       C  0.44842456  0.16052243  0.61586417    -0.12000
C1198       C  0.45792710  0.17401348  0.62669509     0.03500
C1199       C  0.47736949  0.17487874  0.62617071    -0.12500
C1200       C  0.48753571  0.16258560  0.61508338     0.18400
C1201       C  0.47823092  0.14933406  0.60426047    -0.09500
C1202       C  0.45892688  0.14841501  0.60466124    -0.02500
H1203       H  0.48462555  0.18499391  0.63465193     0.04900
C1204       C  0.50791716  0.16270138  0.61575103     0.20400
H1205       H  0.45217020  0.13797441  0.59618199     0.10100
C1206       C  0.51679190  0.15045205  0.62796685    -0.15900
C1207       C  0.53603149  0.14817301  0.62743219     0.03100
C1208       C  0.54672920  0.15839598  0.61441430    -0.11200
C1209       C  0.53775883  0.17123311  0.60268711    -0.01200
C1210       C  0.51847221  0.17335292  0.60321332    -0.06400
H1211       H  0.50861507  0.14225794  0.63764616     0.06100
H1212       H  0.54567978  0.17921409  0.59263626     0.09500
Br1213     Br  0.49141286  0.13191801  0.58897031    -0.06100
Br1214     Br  0.44574415  0.19145783  0.64280163    -0.03000
Br1215     Br  0.54653746  0.13114620  0.64515676    -0.00200
Br1216     Br  0.50700352  0.19023988  0.58603888    -0.04600
C1217       C  0.14714469  0.60631977  0.55713742    -0.12000
C1218       C  0.13937545  0.62096330  0.54656244     0.03500
C1219       C  0.14038684  0.62052535  0.52713379    -0.12500
C1220       C  0.14899793  0.60567835  0.51795473     0.18400
C1221       C  0.15716121  0.59132139  0.52846007    -0.09500
C1222       C  0.15624485  0.59175541  0.54788603    -0.02500
H1223       H  0.13437182  0.63179029  0.51912536     0.04900
C1224       C  0.14947781  0.60555520  0.49741313     0.20400
H1225       H  0.16233214  0.58045010  0.55577801     0.10100
C1226       C  0.16189188  0.61732539  0.48806583    -0.15900
C1227       C  0.16259267  0.61782470  0.46859701     0.03100
C1228       C  0.15040607  0.60646118  0.45803782    -0.11200
C1229       C  0.13801690  0.59464075  0.46766947    -0.01200
C1230       C  0.13749164  0.59412155  0.48708221    -0.06400
H1231       H  0.17114298  0.62616779  0.49600902     0.06100
H1232       H  0.12853980  0.58571257  0.46011546     0.09500
Br1233     Br  0.16977826  0.57093922  0.51683859    -0.06100
Br1234     Br  0.12808283  0.64236350  0.55780218    -0.03000
Br1235     Br  0.18049074  0.63450434  0.45783927    -0.00200
Br1236     Br  0.11985787  0.57786783  0.49888430    -0.04600
C1237       C  0.15070568  0.54836331  0.61456202    -0.12000
C1238       C  0.16185949  0.53844247  0.62742974     0.03500
C1239       C  0.16242077  0.51898931  0.62684654    -0.12500
C1240       C  0.15221987  0.50908994  0.61357605     0.18400
C1241       C  0.14111417  0.51879761  0.60078216    -0.09500
C1242       C  0.14044355  0.53819651  0.60133193    -0.02500
H1243       H  0.17080554  0.51149774  0.63687583     0.04900
C1244       C  0.15259357  0.48859143  0.61383518     0.20400
H1245       H  0.13177724  0.54532684  0.59129287     0.10100
C1246       C  0.14279434  0.47913714  0.62778071    -0.15900
C1247       C  0.14179420  0.45972731  0.62786446     0.03100
C1248       C  0.15068800  0.44947124  0.61368328    -0.11200
C1249       C  0.16126765  0.45898712  0.60026742    -0.01200
C1250       C  0.16223322  0.47840911  0.60023613    -0.06400
H1251       H  0.13570681  0.48693028  0.63852965     0.06100
H1252       H  0.16845613  0.45133504  0.58949305     0.09500
Br1253     Br  0.12615331  0.50610035  0.58269271    -0.06100
Br1254     Br  0.17618072  0.55009186  0.64663530    -0.03000
Br1255     Br  0.12885504  0.44813912  0.64822288    -0.00200
Br1256     Br  0.17680510  0.49047134  0.58138548    -0.04600
C1257       C  0.60747115  0.15859453  0.45623320    -0.12000
C1258       C  0.59926044  0.17410342  0.46526588     0.03500
C1259       C  0.59971295  0.17536144  0.48466821    -0.12500
C1260       C  0.60813852  0.16152460  0.49541575     0.18400
C1261       C  0.61648259  0.14625003  0.48662658    -0.09500
C1262       C  0.61619437  0.14492147  0.46724438    -0.02500
H1263       H  0.59305535  0.18701053  0.49147786     0.04900
C1264       C  0.60661732  0.16237103  0.51582092     0.20400
H1265       H  0.62260982  0.13293056  0.46081693     0.10100
C1266       C  0.59039110  0.15565725  0.52421461    -0.15900
C1267       C  0.58865287  0.15515466  0.54354216     0.03100
C1268       C  0.60351845  0.16133045  0.55485196    -0.11200
C1269       C  0.61942807  0.16888860  0.54632324    -0.01200
C1270       C  0.62105780  0.16941498  0.52694080    -0.06400
H1271       H  0.57907160  0.15062735  0.51564773     0.06100
H1272       H  0.63085141  0.17393473  0.55473139     0.09500
Br1273     Br  0.62772948  0.12651148  0.50065687    -0.06100
Br1274     Br  0.58626147  0.19373449  0.45257949    -0.03000
Br1275     Br  0.56526279  0.14667321  0.55338636    -0.00200
Br1276     Br  0.64325170  0.17962328  0.51621019    -0.04600
C1277       C  0.54990254  0.16171141  0.40075605    -0.12000
C1278       C  0.53925223  0.16706599  0.38521129     0.03500
C1279       C  0.51991503  0.16813432  0.38673535    -0.12500
C1280       C  0.51087498  0.16344392  0.40340073     0.18400
C1281       C  0.52148787  0.15782205  0.41884989    -0.09500
C1282       C  0.54082429  0.15731134  0.41750985    -0.02500
H1283       H  0.51179100  0.17181443  0.37459752     0.04900
C1284       C  0.49040503  0.16209975  0.40347049     0.20400
H1285       H  0.54879128  0.15284882  0.42949293     0.10100
C1286       C  0.48204132  0.14896817  0.39181392    -0.15900
C1287       C  0.46278640  0.14686668  0.39127859     0.03100
C1288       C  0.45141670  0.15785562  0.40296167    -0.11200
C1289       C  0.45983946  0.17140885  0.41428027    -0.01200
C1290       C  0.47917042  0.17369219  0.41449174    -0.06400
H1291       H  0.49060679  0.14030770  0.38297204     0.06100
H1292       H  0.45139728  0.18017426  0.42311704     0.09500
Br1293     Br  0.51031614  0.14887990  0.44142393    -0.06100
Br1294     Br  0.54992472  0.17061990  0.36102507    -0.03000
Br1295     Br  0.45321064  0.12948232  0.37337157    -0.00200
Br1296     Br  0.48952075  0.19319904  0.42946653    -0.04600
C1297       C  0.54976701  0.39420593  0.85132981    -0.12000
C1298       C  0.53986291  0.37934317  0.84297151     0.03500
C1299       C  0.52040396  0.37993116  0.84204601    -0.12500
C1300       C  0.51050151  0.39529562  0.84877855     0.18400
C1301       C  0.52038156  0.41041822  0.85632807    -0.09500
C1302       C  0.53973080  0.40968721  0.85773775    -0.02500
H1303       H  0.51291643  0.36819228  0.83628562     0.04900
C1304       C  0.48988878  0.39487825  0.84909132     0.20400
H1305       H  0.54697692  0.42146303  0.86371748     0.10100
C1306       C  0.48085921  0.39501242  0.86634230    -0.15900
C1307       C  0.46149800  0.39556720  0.86753220     0.03100
C1308       C  0.45062698  0.39577093  0.85115378    -0.11200
C1309       C  0.45966823  0.39480875  0.83384673    -0.01200
C1310       C  0.47914288  0.39449759  0.83271470    -0.06400
H1311       H  0.48899376  0.39485299  0.87902254     0.06100
H1312       H  0.45158782  0.39489100  0.82113955     0.09500
Br1313     Br  0.50811137  0.43268793  0.86438296    -0.06100
Br1314     Br  0.55166874  0.35748375  0.83315898    -0.03000
Br1315     Br  0.45099287  0.39525397  0.89206622    -0.00200
Br1316     Br  0.49042652  0.39461967  0.80855460    -0.04600
C1317       C  0.54680338  0.84596400  0.40150664    -0.12000
C1318       C  0.53670359  0.83340575  0.41289443     0.03500
C1319       C  0.51726331  0.83299437  0.41199266    -0.12500
C1320       C  0.50755705  0.84472219  0.39983988     0.18400
C1321       C  0.51751651  0.85678192  0.38808245    -0.09500
C1322       C  0.53692143  0.85731528  0.38896303    -0.02500
H1323       H  0.50961269  0.82376553  0.42115619     0.04900
C1324       C  0.48705173  0.84526545  0.40076489     0.20400
H1325       H  0.54429333  0.86691762  0.37995430     0.10100
C1326       C  0.47863178  0.85495433  0.41536188    -0.15900
C1327       C  0.45927522  0.85600242  0.41686615     0.03100
C1328       C  0.44786587  0.84712339  0.40346924    -0.11200
C1329       C  0.45649272  0.83722970  0.38894383    -0.01200
C1330       C  0.47587223  0.83626116  0.38753108    -0.06400
H1331       H  0.48723058  0.86177142  0.42568125     0.06100
H1332       H  0.44815181  0.83031614  0.37848723     0.09500
Br1333     Br  0.50514882  0.87339180  0.37124229    -0.06100
Br1334     Br  0.54814204  0.81729350  0.43089531    -0.03000
Br1335     Br  0.44976887  0.86922806  0.43802240    -0.00200
Br1336     Br  0.48651425  0.82235715  0.36745216    -0.04600
C1337       C  0.60735313  0.45129976  0.84932978    -0.12000
C1338       C  0.62202417  0.46261214  0.85581605     0.03500
C1339       C  0.62094371  0.48192625  0.85396662    -0.12500
C1340       C  0.60528471  0.49035752  0.84601565     0.18400
C1341       C  0.59099732  0.47910088  0.83877431    -0.09500
C1342       C  0.59219609  0.45969864  0.84031378    -0.02500
H1343       H  0.63209197  0.49049387  0.85938386     0.04900
C1344       C  0.60355840  0.51083511  0.84705356     0.20400
H1345       H  0.58079254  0.45121628  0.83532053     0.10100
C1346       C  0.60512361  0.52178812  0.83094486    -0.15900
C1347       C  0.60483877  0.54130386  0.83198159     0.03100
C1348       C  0.60302229  0.55010930  0.84947194    -0.11200
C1349       C  0.60107322  0.53892453  0.86544219    -0.01200
C1350       C  0.60130140  0.51958057  0.86435950    -0.06400
H1351       H  0.60698189  0.51513000  0.81758837     0.06100
H1352       H  0.59933906  0.54523370  0.87898679     0.09500
Br1353     Br  0.56897839  0.48962659  0.82807386    -0.06100
Br1354     Br  0.64392459  0.45257271  0.86726102    -0.03000
Br1355     Br  0.60812146  0.55487758  0.80920327    -0.00200
Br1356     Br  0.59827743  0.50569336  0.88701321    -0.04600
C1357       C  0.38836871  0.55257996  0.84763380    -0.12000
C1358       C  0.40279406  0.54087826  0.85411963     0.03500
C1359       C  0.40088511  0.52157212  0.85312302    -0.12500
C1360       C  0.38499338  0.51329493  0.84547803     0.18400
C1361       C  0.37046826  0.52482592  0.83911642    -0.09500
C1362       C  0.37228856  0.54428460  0.84012730    -0.02500
H1363       H  0.41209659  0.51286003  0.85816571     0.04900
C1364       C  0.38435034  0.49262321  0.84443621     0.20400
H1365       H  0.36099806  0.55295354  0.83520020     0.10100
C1366       C  0.37142701  0.48265087  0.85516661    -0.15900
C1367       C  0.37266325  0.46324652  0.85690415     0.03100
C1368       C  0.38753370  0.45354493  0.84848073    -0.11200
C1369       C  0.39957330  0.46338093  0.83663561    -0.01200
C1370       C  0.39797237  0.48268717  0.83445535    -0.06400
H1371       H  0.36059309  0.49001265  0.86255604     0.06100
H1372       H  0.41065917  0.45614650  0.82949949     0.09500
Br1373     Br  0.34818716  0.51471447  0.82851147    -0.06100
Br1374     Br  0.42609790  0.55003662  0.86348898    -0.03000
Br1375     Br  0.35303224  0.45066511  0.86996257    -0.00200
Br1376     Br  0.41476609  0.49498609  0.81770702    -0.04600
C1377       C  0.54736105  0.60990344  0.84848558    -0.12000
C1378       C  0.53847700  0.62431853  0.83836074     0.03500
C1379       C  0.51899124  0.62498368  0.83741518    -0.12500
C1380       C  0.50803846  0.61155080  0.84640699     0.18400
C1381       C  0.51679494  0.59722860  0.85643035    -0.09500
C1382       C  0.53617458  0.59649786  0.85740352    -0.02500
H1383       H  0.51232981  0.63614253  0.82978501     0.04900
C1384       C  0.48748154  0.61265941  0.84568792     0.20400
H1385       H  0.54249213  0.58531965  0.86528188     0.10100
C1386       C  0.47757775  0.59985206  0.83483160    -0.15900
C1387       C  0.45814027  0.59875774  0.83575986     0.03100
C1388       C  0.44824239  0.61049600  0.84805168    -0.11200
C1389       C  0.45824772  0.62386353  0.85827989    -0.01200
C1390       C  0.47763147  0.62513215  0.85702902    -0.06400
H1391       H  0.48508155  0.59025941  0.82601245     0.06100
H1392       H  0.45097914  0.63330091  0.86745321     0.09500
Br1393     Br  0.50278543  0.57863912  0.86957777    -0.06100
Br1394     Br  0.55182384  0.64403415  0.82622428    -0.03000
Br1395     Br  0.44637171  0.58006461  0.82076654    -0.00200
Br1396     Br  0.49014891  0.64360545  0.87164450    -0.04600
C1397       C  0.84608612  0.54662262  0.40225334    -0.12000
C1398       C  0.82844915  0.53787069  0.40179822     0.03500
C1399       C  0.82723367  0.51843135  0.40083734    -0.12500
C1400       C  0.84328548  0.50741435  0.40045496     0.18400
C1401       C  0.86082940  0.51605951  0.40087076    -0.09500
C1402       C  0.86210296  0.53542706  0.40165424    -0.02500
H1403       H  0.81368599  0.51184590  0.40038478     0.04900
C1404       C  0.84163741  0.48691477  0.39985510     0.20400
H1405       H  0.87577903  0.54173444  0.40211532     0.10100
C1406       C  0.84738334  0.47737746  0.38385657    -0.15900
C1407       C  0.84798592  0.45793376  0.38360628     0.03100
C1408       C  0.84277425  0.44777534  0.39956928    -0.11200
C1409       C  0.83591055  0.45726418  0.41512654    -0.01200
C1410       C  0.83538995  0.47671633  0.41540131    -0.06400
H1411       H  0.85182393  0.48511276  0.37169705     0.06100
H1412       H  0.83180996  0.44956842  0.42743035     0.09500
Br1413     Br  0.88348644  0.50197444  0.40120848    -0.06100
Br1414     Br  0.80548515  0.55142364  0.40165118    -0.03000
Br1415     Br  0.85557973  0.44585371  0.36104156    -0.00200
Br1416     Br  0.82736563  0.48872523  0.43779098    -0.04600
C1417       C  0.84058515  0.60619099  0.55928486    -0.12000
C1418       C  0.83346337  0.62118664  0.54870051     0.03500
C1419       C  0.83413396  0.62049986  0.52920431    -0.12500
C1420       C  0.84145960  0.60495987  0.51994272     0.18400
C1421       C  0.84774639  0.58971643  0.53047737    -0.09500
C1422       C  0.84737727  0.59048175  0.54984889    -0.02500
H1423       H  0.82928054  0.63231943  0.52122315     0.04900
C1424       C  0.84327950  0.60511263  0.49939565     0.20400
H1425       H  0.85256100  0.57864094  0.55758672     0.10100
C1426       C  0.86106711  0.60410969  0.49140094    -0.15900
C1427       C  0.86343828  0.60362781  0.47207926     0.03100
C1428       C  0.84775453  0.60442228  0.46030356    -0.11200
C1429       C  0.82998627  0.60571084  0.46839255    -0.01200
C1430       C  0.82764875  0.60602547  0.48768454    -0.06400
H1431       H  0.87321457  0.60366804  0.50030038     0.06100
H1432       H  0.81773065  0.60611472  0.45965521     0.09500
Br1433     Br  0.85670482  0.56730953  0.51911651    -0.06100
Br1434     Br  0.82368222  0.64340293  0.55973519    -0.03000
Br1435     Br  0.88845333  0.60274213  0.46282400    -0.00200
Br1436     Br  0.80277197  0.60687528  0.49727495    -0.04600
C1437       C  0.39101602  0.84125478  0.55854910    -0.12000
C1438       C  0.40599050  0.84575180  0.54660405     0.03500
C1439       C  0.40344519  0.84550758  0.52734425    -0.12500
C1440       C  0.38616683  0.84102266  0.51959074     0.18400
C1441       C  0.37124886  0.83636585  0.53137187    -0.09500
C1442       C  0.37378820  0.83635370  0.55069459    -0.02500
H1443       H  0.41499895  0.84899090  0.51831996     0.04900
C1444       C  0.38424470  0.84158813  0.49914311     0.20400
H1445       H  0.36211024  0.83302142  0.55961438     0.10100
C1446       C  0.39070998  0.82659623  0.48857213    -0.15900
C1447       C  0.39155449  0.82764124  0.46912063     0.03100
C1448       C  0.38622148  0.84425617  0.45988470    -0.11200
C1449       C  0.37889226  0.85889312  0.47068342    -0.01200
C1450       C  0.37788148  0.85765632  0.49005488    -0.06400
H1451       H  0.39550454  0.81412834  0.49555441     0.06100
H1452       H  0.37430098  0.87166027  0.46413591     0.09500
Br1453     Br  0.34717169  0.83031448  0.52166944    -0.06100
Br1454     Br  0.43047034  0.85169129  0.55551654    -0.03000
Br1455     Br  0.40027637  0.80580990  0.45651092    -0.00200
Br1456     Br  0.36849854  0.87859881  0.50362933    -0.04600
C1457       C  0.60999769  0.84673398  0.55895293    -0.12000
C1458       C  0.60839126  0.82981637  0.54921028     0.03500
C1459       C  0.60949589  0.82977286  0.52979480    -0.12500
C1460       C  0.61234690  0.84636438  0.51989346     0.18400
C1461       C  0.61462373  0.86315518  0.52967496    -0.09500
C1462       C  0.61329200  0.86325163  0.54904100    -0.02500
H1463       H  0.60740447  0.81686047  0.52234052     0.04900
C1464       C  0.61060139  0.84623600  0.49944830     0.20400
H1465       H  0.61480032  0.87630068  0.55640546     0.10100
C1466       C  0.59501671  0.85469955  0.49147162    -0.15900
C1467       C  0.59227371  0.85462548  0.47227212     0.03100
C1468       C  0.60541842  0.84587455  0.46053314    -0.11200
C1469       C  0.62091389  0.83710128  0.46866633    -0.01200
C1470       C  0.62357589  0.83725241  0.48794786    -0.06400
H1471       H  0.58478468  0.86129514  0.50033059     0.06100
H1472       H  0.63125660  0.83045446  0.45998475     0.09500
Br1473     Br  0.61956155  0.88625979  0.51716872    -0.06100
Br1474     Br  0.60286950  0.80673324  0.56149629    -0.03000
Br1475     Br  0.56978879  0.86609555  0.46349491    -0.00200
Br1476     Br  0.64543606  0.82568790  0.49790398    -0.04600
C1477       C  0.54907207  0.84515644  0.61395299    -0.12000
C1478       C  0.53689356  0.85910475  0.60744859     0.03500
C1479       C  0.51769257  0.85656077  0.60870819    -0.12500
C1480       C  0.51011217  0.84035952  0.61653652     0.18400
C1481       C  0.52218618  0.82603718  0.62233083    -0.09500
C1482       C  0.54152381  0.82849110  0.62094623    -0.02500
H1483       H  0.50855185  0.86744464  0.60373915     0.04900
C1484       C  0.48958772  0.83920575  0.61857293     0.20400
H1485       H  0.55067010  0.81763219  0.62593993     0.10100
C1486       C  0.47936543  0.82659906  0.60775824    -0.15900
C1487       C  0.45986163  0.82732097  0.60714846     0.03100
C1488       C  0.45021444  0.84114694  0.61734092    -0.11200
C1489       C  0.46057274  0.85307305  0.62888565    -0.01200
C1490       C  0.47996105  0.85214480  0.62962659    -0.06400
H1491       H  0.48663384  0.81662115  0.59915868     0.06100
H1492       H  0.45358265  0.86345937  0.63723424     0.09500
Br1493     Br  0.51299417  0.80340649  0.63311641    -0.06100
Br1494     Br  0.54553836  0.88170333  0.59602316    -0.03000
Br1495     Br  0.44769004  0.80979268  0.59111121    -0.00200
Br1496     Br  0.49274087  0.86905695  0.64586205    -0.04600
C1497       C  0.83858758  0.38911769  0.55541241    -0.12000
C1498       C  0.82898847  0.40207082  0.54419258     0.03500
C1499       C  0.82782566  0.39927811  0.52494608    -0.12500
C1500       C  0.83597336  0.38367317  0.51659143     0.18400
C1501       C  0.84457004  0.37019650  0.52788438    -0.09500
C1502       C  0.84588992  0.37301612  0.54709185    -0.02500
H1503       H  0.82135714  0.40981078  0.51633265     0.04900
C1504       C  0.83781971  0.38321763  0.49608364     0.20400
H1505       H  0.85295715  0.36273077  0.55553317     0.10100
C1506       C  0.85524441  0.38711357  0.48830641    -0.15900
C1507       C  0.85758481  0.38860349  0.46907116     0.03100
C1508       C  0.84214751  0.38634999  0.45707731    -0.11200
C1509       C  0.82479757  0.38169224  0.46492344    -0.01200
C1510       C  0.82255375  0.38019446  0.48425037    -0.06400
H1511       H  0.86710478  0.38927031  0.49733475     0.06100
H1512       H  0.81282704  0.37958129  0.45604433     0.09500
Br1513     Br  0.85499070  0.34794181  0.51755933    -0.06100
Br1514     Br  0.81895316  0.42477076  0.55393022    -0.03000
Br1515     Br  0.88246056  0.39303726  0.46037007    -0.00200
Br1516     Br  0.79853521  0.37381438  0.49392064    -0.04600
C1517       C  0.84099768  0.45159257  0.61294975    -0.12000
C1518       C  0.85660016  0.46312216  0.60938283     0.03500
C1519       C  0.85514153  0.48238841  0.61150211    -0.12500
C1520       C  0.83843603  0.49060141  0.61709448     0.18400
C1521       C  0.82290367  0.47929710  0.62070827    -0.09500
C1522       C  0.82428373  0.45997245  0.61873741    -0.02500
H1523       H  0.86715978  0.49108142  0.60876380     0.04900
C1524       C  0.83757725  0.51107206  0.61844893     0.20400
H1525       H  0.81217055  0.45148861  0.62166539     0.10100
C1526       C  0.82992575  0.52122557  0.60367845    -0.15900
C1527       C  0.83113649  0.54065262  0.60322114     0.03100
C1528       C  0.84027289  0.55019877  0.61774988    -0.11200
C1529       C  0.84737410  0.53998951  0.63282621    -0.01200
C1530       C  0.84598058  0.52058525  0.63331058    -0.06400
H1531       H  0.82361300  0.51394287  0.59211255     0.06100
H1532       H  0.85422641  0.54712503  0.64417749     0.09500
Br1533     Br  0.79970352  0.48969241  0.62864308    -0.06100
Br1534     Br  0.88066845  0.45377607  0.60256662    -0.03000
Br1535     Br  0.82168450  0.55305748  0.58152374    -0.00200
Br1536     Br  0.85588983  0.50757259  0.65439597    -0.04600
C1537       C  0.03675252  0.28885881  0.55338440    -0.12000
C1538       C  0.03241639  0.30471774  0.56413123     0.03500
C1539       C  0.04631934  0.31357026  0.57434386    -0.12500
C1540       C  0.06457978  0.30690489  0.57423139     0.18400
C1541       C  0.06875003  0.29047233  0.56446810    -0.09500
C1542       C  0.05485661  0.28157783  0.55412398    -0.02500
H1543       H  0.04295732  0.32602031  0.58210485     0.04900
C1544       C  0.07904300  0.31814541  0.58349223     0.20400
H1545       H  0.05835715  0.26927212  0.54620586     0.10100
C1546       C  0.07846984  0.32041564  0.60285874    -0.15900
C1547       C  0.09017368  0.33319383  0.61178474     0.03100
C1548       C  0.10281838  0.34392440  0.60117103    -0.11200
C1549       C  0.10367221  0.34109430  0.58183425    -0.01200
C1550       C  0.09180446  0.32860483  0.57296754    -0.06400
H1551       H  0.06834334  0.31271947  0.61097099     0.06100
H1552       H  0.11321801  0.34915339  0.57337236     0.09500
Br1553     Br  0.09317627  0.27981144  0.56480255    -0.06100
Br1554     Br  0.00775463  0.31477396  0.56604671    -0.03000
Br1555     Br  0.08680785  0.33642772  0.63806216    -0.00200
Br1556     Br  0.09234410  0.32781848  0.54627240    -0.04600
C1557       C  0.03776588  0.28941491  0.46762830    -0.12000
C1558       C  0.03714843  0.28822931  0.44795018     0.03500
C1559       C  0.04938861  0.29895834  0.43720185    -0.12500
C1560       C  0.06255397  0.31059273  0.44559797     0.18400
C1561       C  0.06417708  0.31068221  0.46506836    -0.09500
C1562       C  0.05186777  0.30021664  0.47586595    -0.02500
H1563       H  0.04821065  0.29872260  0.42218515     0.04900
C1564       C  0.07326936  0.32382001  0.43403779     0.20400
H1565       H  0.05306684  0.30097450  0.49085696     0.10100
C1566       C  0.06921717  0.34282503  0.43543918    -0.15900
C1567       C  0.07952296  0.35600261  0.42554198     0.03100
C1568       C  0.09406291  0.35019154  0.41372897    -0.11200
C1569       C  0.09756698  0.33109670  0.41167610    -0.01200
C1570       C  0.08739003  0.31792288  0.42186632    -0.06400
H1571       H  0.05816374  0.34743835  0.44455609     0.06100
H1572       H  0.10888141  0.32647227  0.40289786     0.09500
Br1573     Br  0.08283812  0.32513027  0.47755018    -0.06100
Br1574     Br  0.01956450  0.27325464  0.43452068    -0.03000
Br1575     Br  0.07295798  0.38171700  0.42861311    -0.00200
Br1576     Br  0.09417896  0.29222875  0.41988483    -0.04600
C1577       C  0.89559622  0.34464237  0.41458771    -0.12000
C1578       C  0.90801454  0.33313930  0.40462309     0.03500
C1579       C  0.91865866  0.31984387  0.41412997    -0.12500
C1580       C  0.91720504  0.31762450  0.43347359     0.18400
C1581       C  0.90449463  0.32869727  0.44335151    -0.09500
C1582       C  0.89378484  0.34189055  0.43391049    -0.02500
H1583       H  0.92871346  0.31166816  0.40648361     0.04900
C1584       C  0.93119830  0.30616735  0.44334777     0.20400
H1585       H  0.88426596  0.35037465  0.44188724     0.10100
C1586       C  0.94955302  0.31260277  0.44357268    -0.15900
C1587       C  0.96321820  0.30344236  0.45382218     0.03100
C1588       C  0.95861423  0.28743306  0.46437394    -0.11200
C1589       C  0.94040680  0.28035564  0.46333698    -0.01200
C1590       C  0.92671241  0.28960192  0.45290716    -0.06400
H1591       H  0.95321019  0.32510785  0.43596421     0.06100
H1592       H  0.93666346  0.26799828  0.47112530     0.09500
Br1593     Br  0.90237330  0.32754759  0.46994868    -0.06100
Br1594     Br  0.91242661  0.33576639  0.37842251    -0.03000
Br1595     Br  0.98798067  0.31346082  0.45226147    -0.00200
Br1596     Br  0.90217294  0.27918027  0.45208967    -0.04600
C1597       C  0.95641945  0.28773247  0.55005399    -0.12000
C1598       C  0.93878410  0.29218343  0.54267430     0.03500
C1599       C  0.92620343  0.30258128  0.55323637    -0.12500
C1600       C  0.93082163  0.30848743  0.57121007     0.18400
C1601       C  0.94778970  0.30283052  0.57911337    -0.09500
C1602       C  0.96040137  0.29243560  0.56857201    -0.02500
H1603       H  0.91296999  0.30651150  0.54723027     0.04900
C1604       C  0.91838831  0.32163015  0.58092417     0.20400
H1605       H  0.97375054  0.28889772  0.57454651     0.10100
C1606       C  0.90463362  0.31490398  0.59295528    -0.15900
C1607       C  0.89248885  0.32710283  0.60208241     0.03100
C1608       C  0.89401896  0.34660692  0.59914966    -0.11200
C1609       C  0.90802249  0.35314701  0.58708055    -0.01200
C1610       C  0.92006221  0.34089357  0.57803166    -0.06400
H1611       H  0.90334105  0.30005419  0.59524153     0.06100
H1612       H  0.90956949  0.36790685  0.58444818     0.09500
Br1613     Br  0.95469874  0.30993623  0.60384325    -0.06100
Br1614     Br  0.93103422  0.28407636  0.51844024    -0.03000
Br1615     Br  0.87458527  0.31582528  0.61844681    -0.00200
Br1616     Br  0.93862069  0.35105815  0.56172603    -0.04600
C1617       C  0.14509426  0.20754418  0.51089286    -0.12000
C1618       C  0.13609695  0.22145144  0.52160769     0.03500
C1619       C  0.11659962  0.22281073  0.52166487    -0.12500
C1620       C  0.10545367  0.21050525  0.51138833     0.18400
C1621       C  0.11436604  0.19654651  0.50085929    -0.09500
C1622       C  0.13387344  0.19524039  0.50061563    -0.02500
H1623       H  0.11008167  0.23390747  0.52947187     0.04900
C1624       C  0.08481911  0.21353808  0.51051331     0.20400
H1625       H  0.14029159  0.18436016  0.49243957     0.10100
C1626       C  0.07666420  0.21784379  0.49334715    -0.15900
C1627       C  0.05770426  0.22211917  0.49176439     0.03100
C1628       C  0.04607779  0.22238463  0.50779259    -0.11200
C1629       C  0.05425350  0.21757236  0.52497713    -0.01200
C1630       C  0.07331621  0.21326998  0.52643607    -0.06400
H1631       H  0.08529153  0.21832099  0.48099933     0.06100
H1632       H  0.04594336  0.21775598  0.53753614     0.09500
Br1633     Br  0.10049533  0.17851312  0.48694265    -0.06100
Br1634     Br  0.14936986  0.23993535  0.53562176    -0.03000
Br1635     Br  0.04930550  0.22782780  0.46701295    -0.00200
Br1636     Br  0.08296790  0.20712323  0.55053476    -0.04600
C1637       C  0.18069038  0.33590168  0.60861155    -0.12000
C1638       C  0.17506347  0.31746099  0.61269264     0.03500
C1639       C  0.18054269  0.30281979  0.60111868    -0.12500
C1640       C  0.19196848  0.30596203  0.58560771     0.18400
C1641       C  0.19850319  0.32415389  0.58215940    -0.09500
C1642       C  0.19287827  0.33886868  0.59359306    -0.02500
H1643       H  0.17551239  0.28890088  0.60403227     0.04900
C1644       C  0.19600183  0.29027816  0.57274413     0.20400
H1645       H  0.19740195  0.35283834  0.59014946     0.10100
C1646       C  0.18992636  0.29131351  0.55420951    -0.15900
C1647       C  0.19284219  0.27658293  0.54181442     0.03100
C1648       C  0.20160050  0.26012025  0.54801632    -0.11200
C1649       C  0.20748598  0.25903669  0.56662586    -0.01200
C1650       C  0.20494331  0.27394372  0.57887738    -0.06400
H1651       H  0.18271737  0.30363124  0.54938497     0.06100
H1652       H  0.21453960  0.24667793  0.57157653     0.09500
Br1653     Br  0.21503065  0.32970386  0.56194354    -0.06100
Br1654     Br  0.16010696  0.31114652  0.63392890    -0.03000
Br1655     Br  0.18374838  0.27955340  0.51690005    -0.00200
Br1656     Br  0.21474510  0.27161477  0.60358694    -0.04600
C1657       C  0.19633997  0.25544120  0.46102301    -0.12000
C1658       C  0.17829376  0.26310862  0.46034690     0.03500
C1659       C  0.17442592  0.27783253  0.44811166    -0.12500
C1660       C  0.18821873  0.28500227  0.43624787     0.18400
C1661       C  0.20605786  0.27702712  0.43653321    -0.09500
C1662       C  0.21004079  0.26250230  0.44892806    -0.02500
H1663       H  0.16078410  0.28396013  0.44812831     0.04900
C1664       C  0.18398692  0.30160293  0.42468493     0.20400
H1665       H  0.22379772  0.25664635  0.44901939     0.10100
C1666       C  0.19181745  0.31880183  0.42952670    -0.15900
C1667       C  0.18663907  0.33522093  0.42035014     0.03100
C1668       C  0.17327720  0.33463415  0.40591421    -0.11200
C1669       C  0.16601488  0.31719323  0.40066172    -0.01200
C1670       C  0.17128520  0.30082000  0.40985011    -0.06400
H1671       H  0.20151130  0.31954409  0.44100640     0.06100
H1672       H  0.15585848  0.31630340  0.38959996     0.09500
Br1673     Br  0.22527485  0.28522714  0.41992052    -0.06100
Br1674     Br  0.15870526  0.25502246  0.47662300    -0.03000
Br1675     Br  0.19715460  0.35794439  0.42959526    -0.00200
Br1676     Br  0.16074831  0.27768575  0.40174163    -0.04600
C1677       C  0.33530965  0.17960431  0.40757154    -0.12000
C1678       C  0.33227351  0.19829377  0.41297549     0.03500
C1679       C  0.31655487  0.20291046  0.42369003    -0.12500
C1680       C  0.30360767  0.18926861  0.42908562     0.18400
C1681       C  0.30622129  0.17086799  0.42317043    -0.09500
C1682       C  0.32182859  0.16620576  0.41261197    -0.02500
H1683       H  0.31449973  0.21719702  0.42798056     0.04900
C1684       C  0.28755367  0.19420775  0.44109780     0.20400
H1685       H  0.32362465  0.15174020  0.40882743     0.10100
C1686       C  0.27059150  0.19929753  0.43295615    -0.15900
C1687       C  0.25492763  0.20324583  0.44393348     0.03100
C1688       C  0.25605982  0.20203767  0.46357418    -0.11200
C1689       C  0.27316934  0.19697439  0.47158607    -0.01200
C1690       C  0.28872280  0.19303365  0.46059130    -0.06400
H1691       H  0.26954327  0.20021319  0.41795605     0.06100
H1692       H  0.27447134  0.19593531  0.48655885     0.09500
Br1693     Br  0.28903109  0.15145130  0.42963253    -0.06100
Br1694     Br  0.34866491  0.21820711  0.40602010    -0.03000
Br1695     Br  0.23290800  0.21120890  0.43113846    -0.00200
Br1696     Br  0.31119534  0.18584724  0.47290406    -0.04600
C1697       C  0.25513220  0.20213766  0.55056647    -0.12000
C1698       C  0.26278545  0.18416954  0.55257577     0.03500
C1699       C  0.27731357  0.18116317  0.56520757    -0.12500
C1700       C  0.28437319  0.19575356  0.57608684     0.18400
C1701       C  0.27661507  0.21363854  0.57420432    -0.09500
C1702       C  0.26220975  0.21669930  0.56150498    -0.02500
H1703       H  0.28347719  0.16745559  0.56620800     0.04900
C1704       C  0.30095704  0.19242943  0.58790139     0.20400
H1705       H  0.25636498  0.23053476  0.56032059     0.10100
C1706       C  0.31771016  0.20107002  0.58302388    -0.15900
C1707       C  0.33416887  0.19725984  0.59260811     0.03100
C1708       C  0.33414129  0.18440592  0.60764834    -0.11200
C1709       C  0.31709891  0.17628180  0.61291786    -0.01200
C1710       C  0.30066907  0.18007889  0.60312613    -0.06400
H1711       H  0.31807902  0.21052699  0.57126761     0.06100
H1712       H  0.31663280  0.16628758  0.62420345     0.09500
Br1713     Br  0.28497323  0.23426222  0.58892284    -0.06100
Br1714     Br  0.25501144  0.16355210  0.53750243    -0.03000
Br1715     Br  0.35596625  0.21005656  0.58375130    -0.00200
Br1716     Br  0.27823443  0.16786751  0.61086939    -0.04600
C1717       C  0.85354286  0.20474832  0.50636968    -0.12000
C1718       C  0.86340554  0.21824557  0.49583802     0.03500
C1719       C  0.88289297  0.21890569  0.49647398    -0.12500
C1720       C  0.89312302  0.20644192  0.50747454     0.18400
C1721       C  0.88336011  0.19306234  0.51806215    -0.09500
C1722       C  0.86384944  0.19230361  0.51742780    -0.02500
H1723       H  0.89013056  0.22963062  0.48870259     0.04900
C1724       C  0.91370195  0.20897781  0.50901134     0.20400
H1725       H  0.85671285  0.18179288  0.52556202     0.10100
C1726       C  0.92125957  0.21439073  0.52610464    -0.15900
C1727       C  0.94000849  0.21944409  0.52782647     0.03100
C1728       C  0.95189215  0.21944235  0.51198279    -0.11200
C1729       C  0.94443457  0.21299045  0.49504700    -0.01200
C1730       C  0.92562611  0.20782641  0.49348322    -0.06400
H1731       H  0.91228012  0.21536413  0.53816390     0.06100
H1732       H  0.95304312  0.21266322  0.48269606     0.09500
Br1733     Br  0.89603864  0.17524409  0.53334404    -0.06100
Br1734     Br  0.85133604  0.23721220  0.48135745    -0.03000
Br1735     Br  0.94765970  0.22677925  0.55237541    -0.00200
Br1736     Br  0.91678768  0.19946857  0.46976846    -0.04600
C1737       C  0.74050779  0.20088467  0.54798221    -0.12000
C1738       C  0.72380017  0.19287979  0.54138419     0.03500
C1739       C  0.70869667  0.19032702  0.55350840    -0.12500
C1740       C  0.70968000  0.19585702  0.57222099     0.18400
C1741       C  0.72640011  0.20369619  0.57882246    -0.09500
C1742       C  0.74159075  0.20599479  0.56680982    -0.02500
H1743       H  0.69610242  0.18388842  0.54831828     0.04900
C1744       C  0.69342311  0.19261092  0.58472922     0.20400
H1745       H  0.75417138  0.21235693  0.57212121     0.10100
C1746       C  0.69527317  0.18049248  0.59992385    -0.15900
C1747       C  0.68005693  0.17602491  0.61126342     0.03100
C1748       C  0.66220685  0.18329453  0.60720067    -0.11200
C1749       C  0.66058923  0.19616113  0.59250700    -0.01200
C1750       C  0.67596531  0.20088115  0.58140292    -0.06400
H1751       H  0.70864389  0.17421892  0.60283904     0.06100
H1752       H  0.64715136  0.20202625  0.58910746     0.09500
Br1753     Br  0.72890700  0.21245159  0.60387779    -0.06100
Br1754     Br  0.72102119  0.18431795  0.51625280    -0.03000
Br1755     Br  0.68489038  0.16014897  0.63224447    -0.00200
Br1756     Br  0.67246096  0.21879462  0.56191376    -0.04600
C1757       C  0.74576320  0.19811782  0.46109788    -0.12000
C1758       C  0.73912838  0.21134456  0.44814453     0.03500
C1759       C  0.72401709  0.20702509  0.43673030    -0.12500
C1760       C  0.71516831  0.18972476  0.43803225     0.18400
C1761       C  0.72199233  0.17631682  0.45057958    -0.09500
C1762       C  0.73733830  0.18048688  0.46184644    -0.02500
H1763       H  0.71884807  0.21737653  0.42707695     0.04900
C1764       C  0.69796944  0.18661128  0.42724683     0.20400
H1765       H  0.74219506  0.17022377  0.47175334     0.10100
C1766       C  0.69869644  0.17754930  0.41004170    -0.15900
C1767       C  0.68248072  0.17442216  0.39963583     0.03100
C1768       C  0.66504924  0.18067660  0.40642890    -0.11200
C1769       C  0.66469354  0.19021108  0.42355490    -0.01200
C1770       C  0.68083826  0.19304745  0.43393220    -0.06400
H1771       H  0.71192899  0.17264690  0.40481923     0.06100
H1772       H  0.65167227  0.19504833  0.42932531     0.09500
Br1773     Br  0.71004283  0.15264931  0.45354969    -0.06100
Br1774     Br  0.75029399  0.23541627  0.44502405    -0.03000
Br1775     Br  0.68543901  0.16086373  0.37685364    -0.00200
Br1776     Br  0.67875220  0.20510278  0.45763513    -0.04600
C1777       C  0.80013273  0.25638178  0.46455457    -0.12000
C1778       C  0.80687048  0.27364654  0.47108090     0.03500
C1779       C  0.81035884  0.28815588  0.45850658    -0.12500
C1780       C  0.80679513  0.28601376  0.43941489     0.18400
C1781       C  0.80048889  0.26865985  0.43284315    -0.09500
C1782       C  0.79746456  0.25400083  0.44532445    -0.02500
H1783       H  0.81577699  0.30104053  0.46359147     0.04900
C1784       C  0.81049507  0.30185237  0.42662290     0.20400
H1785       H  0.79248093  0.24098938  0.44004139     0.10100
C1786       C  0.82364299  0.29969470  0.41239500    -0.15900
C1787       C  0.82860159  0.31462782  0.40091528     0.03100
C1788       C  0.82060149  0.33238460  0.40378803    -0.11200
C1789       C  0.80686017  0.33431168  0.41755368    -0.01200
C1790       C  0.80185235  0.31929138  0.42895148    -0.06400
H1791       H  0.83039434  0.28650307  0.41050308     0.06100
H1792       H  0.80067662  0.34768661  0.42012254     0.09500
Br1793     Br  0.79477640  0.26438940  0.40711982    -0.06100
Br1794     Br  0.81241690  0.27821796  0.49680460    -0.03000
Br1795     Br  0.84650830  0.30955219  0.38173352    -0.00200
Br1796     Br  0.78337612  0.32354957  0.44772122    -0.04600
C1797       C  0.79945125  0.25484702  0.55163331    -0.12000
C1798       C  0.78540790  0.26548630  0.56044694     0.03500
C1799       C  0.79022019  0.28073865  0.57155309    -0.12500
C1800       C  0.80882921  0.28568524  0.57438727     0.18400
C1801       C  0.82288746  0.27482542  0.56622359    -0.09500
C1802       C  0.81816307  0.25955881  0.55500049    -0.02500
H1803       H  0.77932834  0.28895097  0.57789970     0.04900
C1804       C  0.81305666  0.30298817  0.58481383     0.20400
H1805       H  0.82917994  0.25161764  0.54853986     0.10100
C1806       C  0.81530706  0.30255347  0.60421050    -0.15900
C1807       C  0.81836430  0.31900618  0.61437433     0.03100
C1808       C  0.81888161  0.33639571  0.60507852    -0.11200
C1809       C  0.81660474  0.33654863  0.58558835    -0.01200
C1810       C  0.81383346  0.32017511  0.57553773    -0.06400
H1811       H  0.81460959  0.28935325  0.61147792     0.06100
H1812       H  0.81739638  0.34950410  0.57789729     0.09500
Br1813     Br  0.84866278  0.28068699  0.56971684    -0.06100
Br1814     Br  0.75936929  0.25968246  0.55875341    -0.03000
Br1815     Br  0.82119642  0.31666731  0.64079269    -0.00200
Br1816     Br  0.81137420  0.32196221  0.54901275    -0.04600
C1817       C  0.20621201  0.14735486  0.50701804    -0.12000
C1818       C  0.19483563  0.13518996  0.51757163     0.03500
C1819       C  0.19829857  0.11590803  0.51761276    -0.12500
C1820       C  0.21327457  0.10820184  0.50767927     0.18400
C1821       C  0.22466838  0.12037744  0.49722194    -0.09500
C1822       C  0.22097592  0.13955893  0.49683040    -0.02500
H1823       H  0.18918316  0.10682696  0.52549227     0.04900
C1824       C  0.21680333  0.08758358  0.50835726     0.20400
H1825       H  0.23008175  0.14853030  0.48881367     0.10100
C1826       C  0.21730573  0.07722562  0.49179686    -0.15900
C1827       C  0.22196907  0.05820322  0.49169659     0.03100
C1828       C  0.22563103  0.04869004  0.50862642    -0.11200
C1829       C  0.22429586  0.05901645  0.52525125    -0.01200
C1830       C  0.22016059  0.07812046  0.52523778    -0.06400
H1831       H  0.21461819  0.08417044  0.47868568     0.06100
H1832       H  0.22725378  0.05238414  0.53846017     0.09500
Br1833     Br  0.24619598  0.11182375  0.48401623    -0.06100
Br1834     Br  0.17386528  0.14378497  0.53161460    -0.03000
Br1835     Br  0.22453966  0.04687287  0.46768476    -0.00200
Br1836     Br  0.22090841  0.09085967  0.54866010    -0.04600
C1837       C  0.29251339  0.03785228  0.46267652    -0.12000
C1838       C  0.30937478  0.03390350  0.45331634     0.03500
C1839       C  0.31851157  0.04788025  0.44333250    -0.12500
C1840       C  0.31117589  0.06586625  0.44209255     0.18400
C1841       C  0.29379834  0.06958533  0.45034329    -0.09500
C1842       C  0.28467647  0.05566702  0.46062313    -0.02500
H1843       H  0.33163868  0.04474257  0.43665803     0.04900
C1844       C  0.32236856  0.08036035  0.43248483     0.20400
H1845       H  0.27162719  0.05893481  0.46737744     0.10100
C1846       C  0.32688376  0.07802119  0.41361928    -0.15900
C1847       C  0.33973957  0.08975993  0.40475364     0.03100
C1848       C  0.34825802  0.10430735  0.41482983    -0.11200
C1849       C  0.34328960  0.10689655  0.43355594    -0.01200
C1850       C  0.33071401  0.09501201  0.44244608    -0.06400
H1851       H  0.32092103  0.06650952  0.40595410     0.06100
H1852       H  0.34969464  0.11792737  0.44156700     0.09500
Br1853     Br  0.28187246  0.09328216  0.44762044    -0.06100
Br1854     Br  0.32053200  0.00961410  0.45280327    -0.03000
Br1855     Br  0.34641221  0.08391578  0.37958669    -0.00200
Br1856     Br  0.32701491  0.09833837  0.46866995    -0.04600
C1857       C  0.34536120  0.10674813  0.59779682    -0.12000
C1858       C  0.32609521  0.10571589  0.60154546     0.03500
C1859       C  0.31476222  0.09440451  0.59057228    -0.12500
C1860       C  0.32227648  0.08413138  0.57588367     0.18400
C1861       C  0.34132792  0.08544097  0.57184356    -0.09500
C1862       C  0.35272678  0.09649896  0.58290640    -0.02500
H1863       H  0.30009640  0.09320198  0.59379905     0.04900
C1864       C  0.31050142  0.07071237  0.56603818     0.20400
H1865       H  0.36740633  0.09730113  0.57963678     0.10100
C1866       C  0.30531525  0.07419613  0.54759062    -0.15900
C1867       C  0.29605468  0.06059176  0.53729156     0.03100
C1868       C  0.29177753  0.04331218  0.54564567    -0.11200
C1869       C  0.29605870  0.04033779  0.56442213    -0.01200
C1870       C  0.30555225  0.05380785  0.57457799    -0.06400
H1871       H  0.30897826  0.08729887  0.54106441     0.06100
H1872       H  0.29293758  0.02709069  0.57094105     0.09500
Br1873     Br  0.35249286  0.07197055  0.55171546    -0.06100
Br1874     Br  0.31448837  0.11816949  0.62208605    -0.03000
Br1875     Br  0.28945772  0.06643717  0.51205686    -0.00200
Br1876     Br  0.31289450  0.04786598  0.59954799    -0.04600
C1877       C  0.34762139  0.89538241  0.59990295    -0.12000
C1878       C  0.33355847  0.90481733  0.60999535     0.03500
C1879       C  0.32104392  0.91647157  0.60062918    -0.12500
C1880       C  0.32186018  0.91865539  0.58130057     0.18400
C1881       C  0.33500315  0.90848932  0.57109518    -0.09500
C1882       C  0.34771450  0.89707032  0.58035480    -0.02500
H1883       H  0.31090309  0.92428349  0.60852745     0.04900
C1884       C  0.31070760  0.93337492  0.57228402     0.20400
H1885       H  0.35790826  0.88968370  0.57212780     0.10100
C1886       C  0.31804885  0.95138724  0.57174058    -0.15900
C1887       C  0.30889112  0.96565512  0.56228160     0.03100
C1888       C  0.29199834  0.96195566  0.55286343    -0.11200
C1889       C  0.28419518  0.94402863  0.55419926    -0.01200
C1890       C  0.29345005  0.92977295  0.56382588    -0.06400
H1891       H  0.33116504  0.95430212  0.57854710     0.06100
H1892       H  0.27122897  0.94091422  0.54721206     0.09500
Br1893     Br  0.33651251  0.91033984  0.54450372    -0.06100
Br1894     Br  0.33067094  0.90319367  0.63650091    -0.03000
Br1895     Br  0.32011551  0.98993249  0.56339750    -0.00200
Br1896     Br  0.28239743  0.90552387  0.56480495    -0.04600
C1897       C  0.28778581  0.95525239  0.47057718    -0.12000
C1898       C  0.28056331  0.95075517  0.45281261     0.03500
C1899       C  0.28888643  0.93665352  0.44238176    -0.12500
C1900       C  0.30381310  0.92649498  0.44957533     0.18400
C1901       C  0.30969666  0.92954747  0.46790536    -0.09500
C1902       C  0.30172344  0.94381957  0.47823206    -0.02500
H1903       H  0.28417165  0.93406108  0.42831595     0.04900
C1904       C  0.31517652  0.91526921  0.43694377     0.20400
H1905       H  0.30713096  0.94644682  0.49203159     0.10100
C1906       C  0.32888020  0.92444696  0.42656857    -0.15900
C1907       C  0.34152761  0.91444417  0.41589096     0.03100
C1908       C  0.34046490  0.89487102  0.41547844    -0.11200
C1909       C  0.32609984  0.88573696  0.42514460    -0.01200
C1910       C  0.31353158  0.89582458  0.43598096    -0.06400
H1911       H  0.33002249  0.93946843  0.42718179     0.06100
H1912       H  0.32513654  0.87069424  0.42490699     0.09500
Br1913     Br  0.32959822  0.91554093  0.47886484    -0.06100
Br1914     Br  0.25966838  0.96309192  0.44165818    -0.03000
Br1915     Br  0.35964285  0.92831602  0.40191944    -0.00200
Br1916     Br  0.29487375  0.88260862  0.44977017    -0.04600
C1917       C  0.20552235  0.85479069  0.50952467    -0.12000
C1918       C  0.19234492  0.86705467  0.50159873     0.03500
C1919       C  0.19559933  0.88638934  0.50150233    -0.12500
C1920       C  0.21191234  0.89400986  0.50912924     0.18400
C1921       C  0.22505010  0.88178026  0.51703834    -0.09500
C1922       C  0.22174505  0.86249532  0.51731407    -0.02500
H1923       H  0.18528197  0.89556545  0.49548686     0.04900
C1924       C  0.21516182  0.91462581  0.50853855     0.20400
H1925       H  0.23216522  0.85341026  0.52329649     0.10100
C1926       C  0.21519958  0.92502127  0.52507394    -0.15900
C1927       C  0.21955188  0.94416326  0.52515412     0.03100
C1928       C  0.22397290  0.95351672  0.50829695    -0.11200
C1929       C  0.22310126  0.94305536  0.49169669    -0.01200
C1930       C  0.21887220  0.92397197  0.49171941    -0.06400
H1931       H  0.21226650  0.91805879  0.53812528     0.06100
H1932       H  0.22649245  0.94954396  0.47851956     0.09500
Br1933     Br  0.24819911  0.89069760  0.52679935    -0.06100
Br1934     Br  0.16914784  0.85834663  0.49171240    -0.03000
Br1935     Br  0.22011271  0.95607298  0.54900645    -0.00200
Br1936     Br  0.21979519  0.91096304  0.46847211    -0.04600
C1937       C  0.17605033  0.66615908  0.40728199    -0.12000
C1938       C  0.16691441  0.68369685  0.40671134     0.03500
C1939       C  0.17326656  0.69845592  0.41776343    -0.12500
C1940       C  0.18852190  0.69636845  0.42966413     0.18400
C1941       C  0.19800610  0.67927220  0.42991419    -0.09500
C1942       C  0.19189901  0.66448625  0.41871128    -0.02500
H1943       H  0.16591350  0.71159502  0.41743850     0.04900
C1944       C  0.19359708  0.71194811  0.44230786     0.20400
H1945       H  0.19923690  0.65137308  0.41953963     0.10100
C1946       C  0.18876325  0.71088132  0.46118945    -0.15900
C1947       C  0.19217505  0.72580151  0.47329270     0.03100
C1948       C  0.20032234  0.74240339  0.46648396    -0.11200
C1949       C  0.20524338  0.74336279  0.44757307    -0.01200
C1950       C  0.20213528  0.72827974  0.43559721    -0.06400
H1951       H  0.18206343  0.69844676  0.46648347     0.06100
H1952       H  0.21191298  0.75575859  0.44215657     0.09500
Br1953     Br  0.21921021  0.67544943  0.44559862    -0.06100
Br1954     Br  0.14541948  0.68889061  0.39168842    -0.03000
Br1955     Br  0.18446561  0.72297494  0.49871914    -0.00200
Br1956     Br  0.21041902  0.73025767  0.41032885    -0.04600
C1957       C  0.19789304  0.74379249  0.55065302    -0.12000
C1958       C  0.20899311  0.72743996  0.55100465     0.03500
C1959       C  0.20391054  0.71235358  0.56225504    -0.12500
C1960       C  0.18783959  0.71282562  0.57319515     0.18400
C1961       C  0.17669079  0.72888092  0.57290201    -0.09500
C1962       C  0.18173277  0.74414872  0.56174613    -0.02500
H1963       H  0.21241688  0.69993198  0.56221934     0.04900
C1964       C  0.18252692  0.69589356  0.58382686     0.20400
H1965       H  0.17290201  0.75632538  0.56174617     0.10100
C1966       C  0.18498159  0.69516076  0.60320710    -0.15900
C1967       C  0.18092856  0.67884976  0.61329807     0.03100
C1968       C  0.17451136  0.66284459  0.60389562    -0.11200
C1969       C  0.17215940  0.66374401  0.58448838    -0.01200
C1970       C  0.17594433  0.68001356  0.57452771    -0.06400
H1971       H  0.19027234  0.70725068  0.61046307     0.06100
H1972       H  0.16693354  0.65177673  0.57697843     0.09500
Br1973     Br  0.15410545  0.73021781  0.58698176    -0.06100
Br1974     Br  0.23087468  0.72384526  0.53606407    -0.03000
Br1975     Br  0.18540664  0.67893568  0.63957833    -0.00200
Br1976     Br  0.17135651  0.68005038  0.54823077    -0.04600
C1977       C  0.33315020  0.82008710  0.61094866    -0.12000
C1978       C  0.31549539  0.82847669  0.61369977     0.03500
C1979       C  0.30029712  0.82328692  0.60263123    -0.12500
C1980       C  0.30205134  0.80968403  0.58881682     0.18400
C1981       C  0.31923348  0.80053536  0.58677680    -0.09500
C1982       C  0.33452534  0.80570805  0.59776115    -0.02500
H1983       H  0.28710594  0.83027333  0.60449432     0.04900
C1984       C  0.28620187  0.80608990  0.57595207     0.20400
H1985       H  0.34775788  0.79898962  0.59534502     0.10100
C1986       C  0.28772372  0.81148463  0.55723318    -0.15900
C1987       C  0.27311980  0.80853086  0.54463872     0.03100
C1988       C  0.25641636  0.80007747  0.55069179    -0.11200
C1989       C  0.25479465  0.79505253  0.56956133    -0.01200
C1990       C  0.26947530  0.79791293  0.58210040    -0.06400
H1991       H  0.30036198  0.81814445  0.55240683     0.06100
H1992       H  0.24219262  0.78843212  0.57452153     0.09500
Br1993     Br  0.32247625  0.78099027  0.56897431    -0.06100
Br1994     Br  0.31086235  0.84716148  0.63221688    -0.03000
Br1995     Br  0.27654570  0.81727135  0.51963856    -0.00200
Br1996     Br  0.26635328  0.78966527  0.60729342    -0.04600
C1997       C  0.25341432  0.80169588  0.46217427    -0.12000
C1998       C  0.26145064  0.81956830  0.46054105     0.03500
C1999       C  0.27625070  0.82257013  0.44811489    -0.12500
C2000       C  0.28314228  0.80809198  0.43694056     0.18400
C2001       C  0.27475786  0.79039587  0.43824877    -0.09500
C2002       C  0.26020818  0.78732022  0.45083473    -0.02500
H2003       H  0.28274796  0.83616205  0.44752639     0.04900
C2004       C  0.30004307  0.81123239  0.42530795     0.20400
H2005       H  0.25406821  0.77357128  0.45168182     0.10100
C2006       C  0.31619033  0.80106528  0.42928556    -0.15900
C2007       C  0.33279810  0.80431760  0.41966220     0.03100
C2008       C  0.33376864  0.81849351  0.40599557    -0.11200
C2009       C  0.31733809  0.82806423  0.40138276    -0.01200
C2010       C  0.30059978  0.82450075  0.41083687    -0.06400
H2011       H  0.31595247  0.79065431  0.44020181     0.06100
H2012       H  0.31765267  0.83895118  0.39094917     0.09500
Br2013     Br  0.28239015  0.77002036  0.42283445    -0.06100
Br2014     Br  0.25378255  0.83999061  0.47587373    -0.03000
Br2015     Br  0.35349685  0.78858649  0.42576812    -0.00200
Br2016     Br  0.27886275  0.83802618  0.40344167    -0.04600
C2017       C  0.77574187  0.04698494  0.50864880    -0.12000
C2018       C  0.78060573  0.05624028  0.52535817     0.03500
C2019       C  0.78488308  0.07536853  0.52508619    -0.12500
C2020       C  0.78449518  0.08568734  0.50846777     0.18400
C2021       C  0.78070641  0.07634385  0.49174788    -0.09500
C2022       C  0.77657182  0.05731551  0.49193065    -0.02500
H2023       H  0.78806468  0.08237178  0.53802536     0.04900
C2024       C  0.78743023  0.10622633  0.50882451     0.20400
H2025       H  0.77303568  0.05081334  0.47882712     0.10100
C2026       C  0.80334654  0.11397882  0.50054227    -0.15900
C2027       C  0.80625321  0.13331077  0.50022182     0.03100
C2028       C  0.79321441  0.14535837  0.50866470    -0.11200
C2029       C  0.77730789  0.13750688  0.51695434    -0.01200
C2030       C  0.77424149  0.11823760  0.51687669    -0.06400
H2031       H  0.81355246  0.10490786  0.49421575     0.06100
H2032       H  0.76691728  0.14645990  0.52314967     0.09500
Br2033     Br  0.77933138  0.08926564  0.46840102    -0.06100
Br2034     Br  0.78096831  0.04414554  0.54915459    -0.03000
Br2035     Br  0.82865558  0.14218628  0.48868233    -0.00200
Br2036     Br  0.75127071  0.10908140  0.52695354    -0.04600
C2037       C  0.70810190  0.04669379  0.54867155    -0.12000
C2038       C  0.71474430  0.05260876  0.56614115     0.03500
C2039       C  0.70513074  0.06642829  0.57593693    -0.12500
C2040       C  0.68876832  0.07427078  0.56872256     0.18400
C2041       C  0.68266210  0.06891914  0.55089525    -0.09500
C2042       C  0.69233376  0.05531656  0.54109356    -0.02500
H2043       H  0.70999227  0.07052554  0.58958026     0.04900
C2044       C  0.67745676  0.08699508  0.58026923     0.20400
H2045       H  0.68712833  0.05101214  0.52763225     0.10100
C2046       C  0.67382069  0.10505309  0.57378829    -0.15900
C2047       C  0.66066646  0.11626200  0.58260404     0.03100
C2048       C  0.65130533  0.10960693  0.59850005    -0.11200
C2049       C  0.65600579  0.09220569  0.60588037    -0.01200
C2050       C  0.66881522  0.08078175  0.59679194    -0.06400
H2051       H  0.68064856  0.11011881  0.56132713     0.06100
H2052       H  0.64889180  0.08703567  0.61813870     0.09500
Br2053     Br  0.66036893  0.07852469  0.53974913    -0.06100
Br2054     Br  0.73550723  0.04103115  0.57817736    -0.03000
Br2055     Br  0.65593010  0.14050145  0.57237199    -0.00200
Br2056     Br  0.67257167  0.05622771  0.60660914    -0.04600
C2057       C  0.65247845  0.10386252  0.41109907    -0.12000
C2058       C  0.64707388  0.08576880  0.41691487     0.03500
C2059       C  0.65965652  0.07451258  0.42651531    -0.12500
C2060       C  0.67765946  0.08072934  0.43041452     0.18400
C2061       C  0.68344868  0.09824191  0.42392324    -0.09500
C2062       C  0.67090708  0.10967462  0.41439937    -0.02500
H2063       H  0.65526339  0.06090330  0.43129804     0.04900
C2064       C  0.68971415  0.06895342  0.44210461     0.20400
H2065       H  0.67551609  0.12332031  0.40995538     0.10100
C2066       C  0.69786069  0.05303982  0.43444229    -0.15900
C2067       C  0.70724982  0.04020076  0.44568821     0.03100
C2068       C  0.70877722  0.04338995  0.46504960    -0.11200
C2069       C  0.70102405  0.05973057  0.47249926    -0.01200
C2070       C  0.69138992  0.07231750  0.46126751    -0.06400
H2071       H  0.69619982  0.05020131  0.41974198     0.06100
H2072       H  0.70179517  0.06239302  0.48730700     0.09500
Br2073     Br  0.70830802  0.10701022  0.42788533    -0.06100
Br2074     Br  0.62300739  0.07506495  0.41224944    -0.03000
Br2075     Br  0.71562059  0.01777858  0.43388700    -0.00200
Br2076     Br  0.67932437  0.09305117  0.47293429    -0.04600
C2077       C  0.70578506  0.96425251  0.46481218    -0.12000
C2078       C  0.71141142  0.94546849  0.46435876     0.03500
C2079       C  0.70162830  0.93273155  0.45338070    -0.12500
C2080       C  0.68626374  0.93839127  0.44279627     0.18400
C2081       C  0.68080932  0.95716494  0.44303132    -0.09500
C2082       C  0.69061358  0.96990639  0.45387854    -0.02500
H2083       H  0.70557403  0.91818843  0.45363579     0.04900
C2084       C  0.67454808  0.92416336  0.43380082     0.20400
H2085       H  0.68604344  0.98426818  0.45410802     0.10100
C2086       C  0.66363576  0.91277451  0.44517528    -0.15900
C2087       C  0.65130050  0.89989385  0.43757126     0.03100
C2088       C  0.64959031  0.89829148  0.41796570    -0.11200
C2089       C  0.66115138  0.90931003  0.40659946    -0.01200
C2090       C  0.67357431  0.92216204  0.41438109    -0.06400
H2091       H  0.66454812  0.91412268  0.46015304     0.06100
H2092       H  0.66026978  0.90824167  0.39161158     0.09500
Br2093     Br  0.65917636  0.96578726  0.43000980    -0.06100
Br2094     Br  0.73097717  0.93598621  0.47980122    -0.03000
Br2095     Br  0.63782272  0.88488136  0.45520167    -0.00200
Br2096     Br  0.68897135  0.93666941  0.39809252    -0.04600
C2097       C  0.70101708  0.96467516  0.54918953    -0.12000
C2098       C  0.68254953  0.95858056  0.54607207     0.03500
C2099       C  0.67471378  0.94516045  0.55772937    -0.12500
C2100       C  0.68480409  0.93764795  0.57256841     0.18400
C2101       C  0.70322913  0.94336868  0.57557390    -0.09500
C2102       C  0.71117042  0.95686964  0.56398483    -0.02500
H2103       H  0.66049320  0.94076495  0.55542013     0.04900
C2104       C  0.67543059  0.92405523  0.58472257     0.20400
H2105       H  0.72539187  0.96114476  0.56645664     0.10100
C2106       C  0.67206152  0.90615970  0.57786836    -0.15900
C2107       C  0.66027644  0.89398697  0.58736193     0.03100
C2108       C  0.65147760  0.89980817  0.60388021    -0.11200
C2109       C  0.65585651  0.91723280  0.61142554    -0.01200
C2110       C  0.66769427  0.92943182  0.60187790    -0.06400
H2111       H  0.67810914  0.90190261  0.56475276     0.06100
H2112       H  0.64919886  0.92179240  0.62413307     0.09500
Br2113     Br  0.71803964  0.93287549  0.59509209    -0.06100
Br2114     Br  0.66663341  0.96857634  0.52703823    -0.03000
Br2115     Br  0.65663069  0.86955805  0.57717380    -0.00200
Br2116     Br  0.67161950  0.95384207  0.61187037    -0.04600
C2117       C  0.79238757  0.85481055  0.50749005    -0.12000
C2118       C  0.80145299  0.86662992  0.52048037     0.03500
C2119       C  0.79741454  0.88583782  0.52099972    -0.12500
C2120       C  0.78453133  0.89390531  0.50873558     0.18400
C2121       C  0.77587715  0.88232797  0.49552017    -0.09500
C2122       C  0.77978561  0.86315835  0.49498080    -0.02500
H2123       H  0.80431408  0.89454450  0.53116298     0.04900
C2124       C  0.77972802  0.91417564  0.51034608     0.20400
H2125       H  0.77256761  0.85467232  0.48485765     0.10100
C2126       C  0.78985225  0.92769944  0.50040094    -0.15900
C2127       C  0.78509333  0.94675533  0.50119344     0.03100
C2128       C  0.76993157  0.95275150  0.51221531    -0.11200
C2129       C  0.76020883  0.93912064  0.52253333    -0.01200
C2130       C  0.76486867  0.92015631  0.52158561    -0.06400
H2131       H  0.80145240  0.92339045  0.49184271     0.06100
H2132       H  0.74841342  0.94312430  0.53098923     0.09500
Br2133     Br  0.75832216  0.89205947  0.47802453    -0.06100
Br2134     Br  0.81995501  0.85783615  0.53759151    -0.03000
Br2135     Br  0.80028579  0.96392673  0.48751111    -0.00200
Br2136     Br  0.75014035  0.90275929  0.53552618    -0.04600
C2137       C  0.74089948  0.80075317  0.46646473    -0.12000
C2138       C  0.72600911  0.81208321  0.47225000     0.03500
C2139       C  0.71083286  0.81499647  0.46038921    -0.12500
C2140       C  0.70999660  0.80652301  0.44281606     0.18400
C2141       C  0.72502539  0.79542942  0.43694185    -0.09500
C2142       C  0.74034035  0.79275795  0.44867713    -0.02500
H2143       H  0.69957718  0.82389749  0.46491456     0.04900
C2144       C  0.69354034  0.80984319  0.43074919     0.20400
H2145       H  0.75158768  0.78385530  0.44413129     0.10100
C2146       C  0.69576934  0.81950569  0.41392046    -0.15900
C2147       C  0.68037836  0.82435648  0.40302357     0.03100
C2148       C  0.66222591  0.81973766  0.40902549    -0.11200
C2149       C  0.66010858  0.80919496  0.42536074    -0.01200
C2150       C  0.67553091  0.80429313  0.43620535    -0.06400
H2151       H  0.70953804  0.82368126  0.40944662     0.06100
H2152       H  0.64632982  0.80555597  0.43025097     0.09500
Br2153     Br  0.72482967  0.78275009  0.41349922    -0.06100
Br2154     Br  0.72608696  0.82451100  0.49585897    -0.03000
Br2155     Br  0.68508151  0.83708506  0.37998428    -0.00200
Br2156     Br  0.67124035  0.79019409  0.45848014    -0.04600
C2157       C  0.74382967  0.80236116  0.55370205    -0.12000
C2158       C  0.73627028  0.78923254  0.56627693     0.03500
C2159       C  0.72156036  0.79426230  0.57797979    -0.12500
C2160       C  0.71402832  0.81223034  0.57742091     0.18400
C2161       C  0.72188390  0.82551996  0.56528173    -0.09500
C2162       C  0.73672619  0.82056291  0.55365331    -0.02500
H2163       H  0.71582247  0.78403555  0.58746990     0.04900
C2164       C  0.69759717  0.81659429  0.58912860     0.20400
H2165       H  0.74236730  0.83082241  0.54413591     0.10100
C2166       C  0.69942919  0.82867570  0.60429864    -0.15900
C2167       C  0.68398098  0.83355309  0.61514032     0.03100
C2168       C  0.66617953  0.82621473  0.61087858    -0.11200
C2169       C  0.66461900  0.81353934  0.59610306    -0.01200
C2170       C  0.68005761  0.80879621  0.58525512    -0.06400
H2171       H  0.71292962  0.83448708  0.60759669     0.06100
H2172       H  0.65114505  0.80795164  0.59235050     0.09500
Br2173     Br  0.71214778  0.85028834  0.56338411    -0.06100
Br2174     Br  0.74595430  0.76447150  0.56877386    -0.03000
Br2175     Br  0.68835921  0.85001009  0.63570308    -0.00200
Br2176     Br  0.67624303  0.79257866  0.56445368    -0.04600
C2177       C  0.79642241  0.74220869  0.55016543    -0.12000
C2178       C  0.80053459  0.72414764  0.54344399     0.03500
C2179       C  0.80375435  0.70953792  0.55599687    -0.12500
C2180       C  0.80305746  0.71242488  0.57527161     0.18400
C2181       C  0.79916580  0.73038592  0.58197942    -0.09500
C2182       C  0.79591128  0.74500261  0.56951675    -0.02500
H2183       H  0.80723622  0.69588290  0.55068358     0.04900
C2184       C  0.80799044  0.69694578  0.58808029     0.20400
H2185       H  0.79270080  0.75861690  0.57507113     0.10100
C2186       C  0.82426463  0.69839804  0.59862357    -0.15900
C2187       C  0.83026611  0.68380690  0.61000705     0.03100
C2188       C  0.82011346  0.66683268  0.61064315    -0.11200
C2189       C  0.80330397  0.66577798  0.60063775    -0.01200
C2190       C  0.79722652  0.68061686  0.58947829    -0.06400
H2191       H  0.83255150  0.71098108  0.59778732     0.06100
H2192       H  0.79511972  0.65312038  0.60092742     0.09500
Br2193     Br  0.79769010  0.73557995  0.60809365    -0.06100
Br2194     Br  0.80315496  0.71850284  0.51745983    -0.03000
Br2195     Br  0.85246750  0.68859686  0.62411149    -0.00200
Br2196     Br  0.77413348  0.67798130  0.57642894    -0.04600
C2197       C  0.79861088  0.74379365  0.46508793    -0.12000
C2198       C  0.81682224  0.73650028  0.46380636     0.03500
C2199       C  0.82040769  0.72094069  0.45254162    -0.12500
C2200       C  0.80617128  0.71222082  0.44238155     0.18400
C2201       C  0.78800118  0.71938139  0.44371464    -0.09500
C2202       C  0.78436464  0.73491902  0.45497044    -0.02500
H2203       H  0.83438929  0.71540682  0.45192521     0.04900
C2204       C  0.81052004  0.69539426  0.43097906     0.20400
H2205       H  0.77029328  0.74020734  0.45565842     0.10100
C2206       C  0.80388090  0.67786793  0.43657525    -0.15900
C2207       C  0.80879949  0.66156841  0.42697220     0.03100
C2208       C  0.82083357  0.66251326  0.41137928    -0.11200
C2209       C  0.82701493  0.68021239  0.40555932    -0.01200
C2210       C  0.82189214  0.69646202  0.41506555    -0.06400
H2211       H  0.79516033  0.67680874  0.44881982     0.06100
H2212       H  0.83611188  0.68144616  0.39360889     0.09500
Br2213     Br  0.76780150  0.70872434  0.42994536    -0.06100
Br2214     Br  0.83715264  0.74622770  0.47810722    -0.03000
Br2215     Br  0.79959329  0.63853350  0.43689977    -0.00200
Br2216     Br  0.83056781  0.71989385  0.40563039    -0.04600
C2217       C  0.04567227  0.77637269  0.50969896    -0.12000
C2218       C  0.05195417  0.79064443  0.49760051     0.03500
C2219       C  0.07099905  0.79555646  0.49703080    -0.12500
C2220       C  0.08414697  0.78661521  0.50846570     0.18400
C2221       C  0.07778778  0.77296545  0.52100575    -0.09500
C2222       C  0.05890953  0.76801875  0.52155200    -0.02500
H2223       H  0.07559848  0.80630111  0.48748588     0.04900
C2224       C  0.10451918  0.79089129  0.50683802     0.20400
H2225       H  0.05471162  0.75698911  0.53096142     0.10100
C2226       C  0.11323103  0.80246254  0.51992300    -0.15900
C2227       C  0.13266829  0.80510838  0.51997143     0.03100
C2228       C  0.14407450  0.79595493  0.50667859    -0.11200
C2229       C  0.13508504  0.78477481  0.49328528    -0.01200
C2230       C  0.11568223  0.78218226  0.49334057    -0.06400
H2231       H  0.10485453  0.80923964  0.53043003     0.06100
H2232       H  0.14322109  0.77754245  0.48290459     0.09500
Br2233     Br  0.09464909  0.76000057  0.53712435    -0.06100
Br2234     Br  0.03517461  0.80439909  0.48210897    -0.03000
Br2235     Br  0.14234797  0.82159755  0.53860097    -0.00200
Br2236     Br  0.10501731  0.76580059  0.47523326    -0.04600
C2237       C  0.09992150  0.65383803  0.41252577    -0.12000
C2238       C  0.08857867  0.66580381  0.40175731     0.03500
C2239       C  0.07754499  0.67921524  0.41057026    -0.12500
C2240       C  0.07752251  0.68099263  0.42998069     0.18400
C2241       C  0.08889986  0.66924787  0.44069523    -0.09500
C2242       C  0.10004875  0.65600858  0.43197339    -0.02500
H2243       H  0.06841338  0.68787624  0.40229108     0.04900
C2244       C  0.06356705  0.69299270  0.43905575     0.20400
H2245       H  0.10859455  0.64706949  0.44057743     0.10100
C2246       C  0.04503007  0.68712215  0.43889941    -0.15900
C2247       C  0.03166964  0.69612629  0.44964572     0.03100
C2248       C  0.03685527  0.71122598  0.46111376    -0.11200
C2249       C  0.05516441  0.71802847  0.46013504    -0.01200
C2250       C  0.06850224  0.70904496  0.44912603    -0.06400
H2251       H  0.04104218  0.67506577  0.43079853     0.06100
H2252       H  0.05927368  0.72989508  0.46844093     0.09500
Br2253     Br  0.08850079  0.66963076  0.46739819    -0.06100
Br2254     Br  0.08611347  0.66369977  0.37526139    -0.03000
Br2255     Br  0.00652113  0.68731089  0.44754979    -0.00200
Br2256     Br  0.09328281  0.71887852  0.44835991    -0.04600
C2257       C  0.03589254  0.70771209  0.54884718    -0.12000
C2258       C  0.03480756  0.70905068  0.56848483     0.03500
C2259       C  0.04772771  0.69961749  0.57951340    -0.12500
C2260       C  0.06153273  0.68859891  0.57142843     0.18400
C2261       C  0.06252609  0.68701219  0.55200726    -0.09500
C2262       C  0.05000699  0.69675259  0.54092228    -0.02500
H2263       H  0.04669359  0.70043279  0.59452103     0.04900
C2264       C  0.07374239  0.67747464  0.58341531     0.20400
H2265       H  0.05104133  0.69524501  0.52597615     0.10100
C2266       C  0.06623287  0.66201907  0.59260750    -0.15900
C2267       C  0.07764548  0.64985918  0.60250471     0.03100
C2268       C  0.09700801  0.65314090  0.60317349    -0.11200
C2269       C  0.10428998  0.66928777  0.59482412    -0.01200
C2270       C  0.09280715  0.68142964  0.58497673    -0.06400
H2271       H  0.05146386  0.65917386  0.59169458     0.06100
H2272       H  0.11907126  0.67215644  0.59537478     0.09500
Br2273     Br  0.07975921  0.67054666  0.54001970    -0.06100
Br2274     Br  0.01547418  0.72207909  0.58150094    -0.03000
Br2275     Br  0.06573616  0.62947661  0.61513448    -0.00200
Br2276     Br  0.10373794  0.70302256  0.57361738    -0.04600
C2277       C  0.95104831  0.77685900  0.50496197    -0.12000
C2278       C  0.93925180  0.77747814  0.48909654     0.03500
C2279       C  0.92034026  0.78175770  0.49101093    -0.12500
C2280       C  0.91247613  0.78577658  0.50836476     0.18400
C2281       C  0.92418484  0.78576373  0.52411726    -0.09500
C2282       C  0.94317940  0.78141142  0.52232597    -0.02500
H2283       H  0.91154150  0.78157489  0.47878534     0.04900
C2284       C  0.89193441  0.78898959  0.50961089     0.20400
H2285       H  0.95166196  0.78094035  0.53475654     0.10100
C2286       C  0.88079464  0.77649486  0.51973210    -0.15900
C2287       C  0.86133869  0.77822473  0.52014889     0.03100
C2288       C  0.85244341  0.79275612  0.51019061    -0.11200
C2289       C  0.86363956  0.80514952  0.49994704    -0.01200
C2290       C  0.88309549  0.80342990  0.49964447    -0.06400
H2291       H  0.88726913  0.76500151  0.52703161     0.06100
H2292       H  0.85724524  0.81643082  0.49226216     0.09500
Br2293     Br  0.91490895  0.79157419  0.54841840    -0.06100
Br2294     Br  0.94743620  0.77240858  0.46415510    -0.03000
Br2295     Br  0.84783139  0.75937453  0.53353058    -0.00200
Br2296     Br  0.89701529  0.82154152  0.48577973    -0.04600
C2297       C  0.89693796  0.65049716  0.59976216    -0.12000
C2298       C  0.90577095  0.64658822  0.58253955     0.03500
C2299       C  0.91684243  0.66007387  0.57396002    -0.12500
C2300       C  0.91956617  0.67753173  0.58202202     0.18400
C2301       C  0.91092058  0.68161364  0.59905495    -0.09500
C2302       C  0.89976433  0.66814458  0.60781347    -0.02500
H2303       H  0.92370846  0.65679998  0.56095849     0.04900
C2304       C  0.93256221  0.69053969  0.57274514     0.20400
H2305       H  0.89319878  0.67156188  0.62090780     0.10100
C2306       C  0.92587662  0.70326258  0.55948911    -0.15900
C2307       C  0.93822337  0.71330435  0.54811701     0.03100
C2308       C  0.95752879  0.71058469  0.54999505    -0.11200
C2309       C  0.96412164  0.69829146  0.56366334    -0.01200
C2310       C  0.95184810  0.68832810  0.57497105    -0.06400
H2311       H  0.91104058  0.70470404  0.55738395     0.06100
H2312       H  0.97893305  0.69602921  0.56519620     0.09500
Br2313     Br  0.91420565  0.70528307  0.61082696    -0.06100
Br2314     Br  0.90437850  0.62304265  0.56992675    -0.03000
Br2315     Br  0.92810969  0.72883914  0.52890013    -0.00200
Br2316     Br  0.96200389  0.67095250  0.59251735    -0.04600
C2317       C  0.95905277  0.70903572  0.46315794    -0.12000
C2318       C  0.95902967  0.71184371  0.44361911     0.03500
C2319       C  0.94747042  0.70094467  0.43229327    -0.12500
C2320       C  0.93569675  0.68744190  0.44003239     0.18400
C2321       C  0.93487007  0.68541881  0.45944582    -0.09500
C2322       C  0.94638092  0.69612763  0.47075138    -0.02500
H2323       H  0.94800417  0.70267394  0.41734678     0.04900
C2324       C  0.92504621  0.67473749  0.42790866     0.20400
H2325       H  0.94569004  0.69388687  0.48562617     0.10100
C2326       C  0.92983878  0.65583975  0.42776334    -0.15900
C2327       C  0.91840093  0.64275220  0.41913503     0.03100
C2328       C  0.90194678  0.64857380  0.41023549    -0.11200
C2329       C  0.89793368  0.66764139  0.40907688    -0.01200
C2330       C  0.90930779  0.68073187  0.41794565    -0.06400
H2331       H  0.94213197  0.65117074  0.43510804     0.06100
H2332       H  0.88533810  0.67226556  0.40223209     0.09500
Br2333     Br  0.91836783  0.66796508  0.47124277    -0.06100
Br2334     Br  0.97462176  0.72964660  0.43115182    -0.03000
Br2335     Br  0.92585678  0.61712217  0.42003865    -0.00200
Br2336     Br  0.90195378  0.70634877  0.41745170    -0.04600
C2337       C  0.34834852  0.58997557  0.11198346    -0.12000
C2338       C  0.33083652  0.59834644  0.10862042     0.03500
C2339       C  0.31834004  0.58999278  0.09627716    -0.12500
C2340       C  0.32284147  0.57330601  0.08741489     0.18400
C2341       C  0.33989928  0.56463783  0.09113168    -0.09500
C2342       C  0.35246332  0.57294783  0.10329915    -0.02500
H2343       H  0.30508358  0.59656273  0.09350563     0.04900
C2344       C  0.31016060  0.56543639  0.07351426     0.20400
H2345       H  0.36565357  0.56612730  0.10572273     0.10100
C2346       C  0.31307767  0.56990111  0.05479346    -0.15900
C2347       C  0.30335753  0.56058588  0.04086658     0.03100
C2348       C  0.29042624  0.54664978  0.04570655    -0.11200
C2349       C  0.28665073  0.54301441  0.06450413    -0.01200
C2350       C  0.29657372  0.55223641  0.07843664    -0.06400
H2351       H  0.32345552  0.58017793  0.05100252     0.06100
H2352       H  0.27672239  0.53231215  0.06832087     0.09500
Br2353     Br  0.34667535  0.54153208  0.07964249    -0.06100
Br2354     Br  0.32258820  0.62065182  0.12072082    -0.03000
Br2355     Br  0.30823997  0.56741991  0.01548759    -0.00200
Br2356     Br  0.29216482  0.54559701  0.10388969    -0.04600
C2357       C  0.34860442  0.41169364  0.10895571    -0.12000
C2358       C  0.35511366  0.42073827  0.09261654     0.03500
C2359       C  0.34262712  0.43029320  0.08121136    -0.12500
C2360       C  0.32375897  0.43134698  0.08572636     0.18400
C2361       C  0.31721558  0.42272940  0.10196660    -0.09500
C2362       C  0.32955316  0.41296242  0.11338583    -0.02500
H2363       H  0.34769523  0.43715413  0.06877218     0.04900
C2364       C  0.31136553  0.44207272  0.07345335     0.20400
H2365       H  0.32416735  0.40647754  0.12587669     0.10100
C2366       C  0.30122370  0.43287256  0.05961009    -0.15900
C2367       C  0.29121648  0.44291211  0.04623007     0.03100
C2368       C  0.29141861  0.46261392  0.04662115    -0.11200
C2369       C  0.30090558  0.47161376  0.06120205    -0.01200
C2370       C  0.31083836  0.46154251  0.07446196    -0.06400
H2371       H  0.30163644  0.41783126  0.05884141     0.06100
H2372       H  0.30104565  0.48665653  0.06206912     0.09500
Br2373     Br  0.29164587  0.42443289  0.10923302    -0.06100
Br2374     Br  0.38066672  0.42125511  0.08474224    -0.03000
Br2375     Br  0.27886531  0.42870512  0.02730786    -0.00200
Br2376     Br  0.32401855  0.47495491  0.09339024    -0.04600
C2377       C  0.34707140  0.41151865  0.90429499    -0.12000
C2378       C  0.35223415  0.42688511  0.91544833     0.03500
C2379       C  0.33898844  0.43545991  0.92669279    -0.12500
C2380       C  0.32061478  0.42906701  0.92719751     0.18400
C2381       C  0.31531293  0.41396067  0.91606327    -0.09500
C2382       C  0.32850108  0.40532252  0.90471612    -0.02500
H2383       H  0.34306946  0.44715354  0.93526692     0.04900
C2384       C  0.30768867  0.43792771  0.94031852     0.20400
H2385       H  0.32426591  0.39349505  0.89646508     0.10100
C2386       C  0.29581697  0.45211189  0.93411444    -0.15900
C2387       C  0.28588014  0.46292608  0.94688620     0.03100
C2388       C  0.28805350  0.45964013  0.96607771    -0.11200
C2389       C  0.29928879  0.44491301  0.97214285    -0.01200
C2390       C  0.30894048  0.43397309  0.95941649    -0.06400
H2391       H  0.29494633  0.45529845  0.91942136     0.06100
H2392       H  0.30092927  0.44222461  0.98687728     0.09500
Br2393     Br  0.29043491  0.40438127  0.91641693    -0.06100
Br2394     Br  0.37676255  0.43755521  0.91568391    -0.03000
Br2395     Br  0.27109657  0.48312546  0.93763345    -0.00200
Br2396     Br  0.32430575  0.41422838  0.96869979    -0.04600
C2397       C  0.29380541  0.54593305  0.96718098    -0.12000
C2398       C  0.31221541  0.54251348  0.96099791     0.03500
C2399       C  0.32064168  0.55456898  0.94829245    -0.12500
C2400       C  0.31138229  0.57030475  0.94165416     0.18400
C2401       C  0.29330854  0.57413996  0.94803149    -0.09500
C2402       C  0.28465626  0.56200322  0.96071282    -0.02500
H2403       H  0.33467079  0.55171818  0.94361274     0.04900
C2404       C  0.32105719  0.58204802  0.92777544     0.20400
H2405       H  0.27067905  0.56505358  0.96537903     0.10100
C2406       C  0.32125289  0.57625065  0.90916890    -0.15900
C2407       C  0.33315601  0.58465881  0.89624882     0.03100
C2408       C  0.34493032  0.59927109  0.90185226    -0.11200
C2409       C  0.34400681  0.60577973  0.92020033    -0.01200
C2410       C  0.33238120  0.59708192  0.93323584    -0.06400
H2411       H  0.31273469  0.56457368  0.90489271     0.06100
H2412       H  0.35312293  0.61691895  0.92465822     0.09500
Br2413     Br  0.28003571  0.59567860  0.93967148    -0.06100
Br2414     Br  0.32744393  0.52243905  0.96996111    -0.03000
Br2415     Br  0.33323216  0.57547592  0.87119307    -0.00200
Br2416     Br  0.33359999  0.60503299  0.95863941    -0.04600
C2417       C  0.20581029  0.50084303  0.86181287    -0.12000
C2418       C  0.22154598  0.49311243  0.87076184     0.03500
C2419       C  0.22311546  0.49368647  0.89020469    -0.12500
C2420       C  0.20923170  0.50172896  0.90128831     0.18400
C2421       C  0.19358374  0.50956791  0.89241246    -0.09500
C2422       C  0.19203915  0.50916551  0.87291423    -0.02500
H2423       H  0.23545403  0.48803097  0.89674242     0.04900
C2424       C  0.21204047  0.50272925  0.92188572     0.20400
H2425       H  0.17981762  0.51510717  0.86642011     0.10100
C2426       C  0.21439131  0.52013327  0.93033232    -0.15900
C2427       C  0.21922169  0.52170216  0.94917443     0.03100
C2428       C  0.22207522  0.50551290  0.96018270    -0.11200
C2429       C  0.21872213  0.48809378  0.95187189    -0.01200
C2430       C  0.21381641  0.48662086  0.93299410    -0.06400
H2431       H  0.21299490  0.53265742  0.92203433     0.06100
H2432       H  0.22077141  0.47544767  0.95983003     0.09500
Br2433     Br  0.17361116  0.52033816  0.90636463    -0.06100
Br2434     Br  0.24203184  0.48260164  0.85727700    -0.03000
Br2435     Br  0.22176001  0.54656991  0.95863641    -0.00200
Br2436     Br  0.20986634  0.46225132  0.92291415    -0.04600
C2437       C  0.19889316  0.54290029  0.74942870    -0.12000
C2438       C  0.19272518  0.53600953  0.73207668     0.03500
C2439       C  0.18933920  0.54833753  0.71732851    -0.12500
C2440       C  0.19222318  0.56756558  0.71927838     0.18400
C2441       C  0.19825179  0.57446426  0.73659662    -0.09500
C2442       C  0.20141896  0.56220665  0.75143450    -0.02500
H2443       H  0.18426397  0.54288648  0.70424323     0.04900
C2444       C  0.18791938  0.58015711  0.70337667     0.20400
H2445       H  0.20633720  0.56780693  0.76451352     0.10100
C2446       C  0.17381738  0.59342357  0.70531729    -0.15900
C2447       C  0.16815042  0.60443831  0.69028729     0.03100
C2448       C  0.17626532  0.60188697  0.67246326    -0.11200
C2449       C  0.19118195  0.58936605  0.67087736    -0.01200
C2450       C  0.19698524  0.57855633  0.68607233    -0.06400
H2451       H  0.16687852  0.59498400  0.71859302     0.06100
H2452       H  0.19787160  0.58731181  0.65755245     0.09500
Br2453     Br  0.20320005  0.60040948  0.74050889    -0.06100
Br2454     Br  0.18778018  0.51009584  0.72773714    -0.03000
Br2455     Br  0.14940112  0.62273735  0.69555958    -0.00200
Br2456     Br  0.21730327  0.56170263  0.68245099    -0.04600
C2457       C  0.19781407  0.45664918  0.75267643    -0.12000
C2458       C  0.17955828  0.45000178  0.74917511     0.03500
C2459       C  0.17609042  0.43853032  0.73372761    -0.12500
C2460       C  0.19041860  0.43339830  0.72151056     0.18400
C2461       C  0.20857699  0.43978161  0.72511806    -0.09500
C2462       C  0.21210339  0.45117864  0.74046825    -0.02500
H2463       H  0.16200184  0.43399786  0.73093004     0.04900
C2464       C  0.18602707  0.42292635  0.70416659     0.20400
H2465       H  0.22623787  0.45582085  0.74278399     0.10100
C2466       C  0.18872651  0.43180448  0.68704381    -0.15900
C2467       C  0.18501296  0.42280768  0.67021679     0.03100
C2468       C  0.17804947  0.40424649  0.67013511    -0.11200
C2469       C  0.17532277  0.39538505  0.68745173    -0.01200
C2470       C  0.17925260  0.40451625  0.70429391    -0.06400
H2471       H  0.19377526  0.44601630  0.68677937     0.06100
H2472       H  0.16991151  0.38132913  0.68797101     0.09500
Br2473     Br  0.22920370  0.43319422  0.70953946    -0.06100
Br2474     Br  0.15843371  0.45668074  0.76408454    -0.03000
Br2475     Br  0.18973033  0.43747600  0.64828645    -0.00200
Br2476     Br  0.17555512  0.39115508  0.72710271    -0.04600
C2477       C  0.25742338  0.46011692  0.80716519    -0.12000
C2478       C  0.27500736  0.46694670  0.81279533     0.03500
C2479       C  0.28969879  0.45453580  0.81597284    -0.12500
C2480       C  0.28743282  0.43528327  0.81350782     0.18400
C2481       C  0.26988741  0.42843297  0.80818176    -0.09500
C2482       C  0.25512202  0.44076428  0.80516982    -0.02500
H2483       H  0.30303712  0.45994891  0.82042445     0.04900
C2484       C  0.30349086  0.42268562  0.81689847     0.20400
H2485       H  0.24186032  0.43516142  0.80073833     0.10100
C2486       C  0.30283105  0.40987265  0.83163565    -0.15900
C2487       C  0.31837706  0.39907829  0.83635986     0.03100
C2488       C  0.33529074  0.40135906  0.82650771    -0.11200
C2489       C  0.33551970  0.41354094  0.81114538    -0.01200
C2490       C  0.31985494  0.42398762  0.80623762    -0.06400
H2491       H  0.29028113  0.40865385  0.83988179     0.06100
H2492       H  0.34815885  0.41536601  0.80315345     0.09500
Br2493     Br  0.26563501  0.40244414  0.80386817    -0.06100
Br2494     Br  0.27985633  0.49287359  0.81715519    -0.03000
Br2495     Br  0.31560906  0.38255110  0.85714917    -0.00200
Br2496     Br  0.32150151  0.43986983  0.78481838    -0.04600
C2497       C  0.25304918  0.54786531  0.80737930    -0.12000
C2498       C  0.26108613  0.55003833  0.82516959     0.03500
C2499       C  0.27595703  0.56250529  0.82772484    -0.12500
C2500       C  0.28300614  0.57315654  0.81286934     0.18400
C2501       C  0.27473997  0.57127196  0.79523099    -0.09500
C2502       C  0.26006561  0.55867884  0.79260251    -0.02500
H2503       H  0.28230623  0.56364914  0.84133662     0.04900
C2504       C  0.29949710  0.58542106  0.81589001     0.20400
H2505       H  0.25398561  0.55743629  0.77887771     0.10100
C2506       C  0.31645130  0.58110552  0.80725330    -0.15900
C2507       C  0.33270547  0.59126310  0.81106987     0.03100
C2508       C  0.33234221  0.60590134  0.82424930    -0.11200
C2509       C  0.31506339  0.61076598  0.83208257    -0.01200
C2510       C  0.29879682  0.60084724  0.82788421    -0.06400
H2511       H  0.31715087  0.56939827  0.79781337     0.06100
H2512       H  0.31422735  0.62213107  0.84191599     0.09500
Br2513     Br  0.28263058  0.58605035  0.77442352    -0.06100
Br2514     Br  0.25328407  0.53548127  0.84616599    -0.03000
Br2515     Br  0.35490457  0.58344883  0.79850688    -0.00200
Br2516     Br  0.27586075  0.60903150  0.83868225    -0.04600
C2517       C  0.22391299  0.50269253  0.05403328    -0.12000
C2518       C  0.21795131  0.51923729  0.06297406     0.03500
C2519       C  0.21336081  0.51908933  0.08208397    -0.12500
C2520       C  0.21445710  0.50274185  0.09284901     0.18400
C2521       C  0.21962845  0.48615321  0.08384067    -0.09500
C2522       C  0.22421927  0.48623602  0.06484228    -0.02500
H2523       H  0.20920727  0.53195447  0.08869696     0.04900
C2524       C  0.21071204  0.50322826  0.11344749     0.20400
H2525       H  0.22869188  0.47326431  0.05866776     0.10100
C2526       C  0.19531060  0.49370414  0.12091938    -0.15900
C2527       C  0.19190949  0.49320678  0.14023309     0.03100
C2528       C  0.20404147  0.50239370  0.15273216    -0.11200
C2529       C  0.21920927  0.51226535  0.14514769    -0.01200
C2530       C  0.22262781  0.51265976  0.12586700    -0.06400
H2531       H  0.18584520  0.48656566  0.11163427     0.06100
H2532       H  0.22879111  0.51939046  0.15432269     0.09500
Br2533     Br  0.22192101  0.46311303  0.09717728    -0.06100
Br2534     Br  0.21634802  0.54273113  0.05036820    -0.03000
Br2535     Br  0.16986402  0.48061038  0.14851506    -0.00200
Br2536     Br  0.24437728  0.52550381  0.11725486    -0.04600
C2537       C  0.19613532  0.45549540  0.26356634    -0.12000
C2538       C  0.19665398  0.43583727  0.26181849     0.03500
C2539       C  0.19222964  0.42446978  0.27707021    -0.12500
C2540       C  0.18662734  0.43212361  0.29405794     0.18400
C2541       C  0.18518235  0.45160586  0.29559990    -0.09500
C2542       C  0.19017509  0.46306792  0.28059476    -0.02500
H2543       H  0.19329481  0.40949798  0.27570800     0.04900
C2544       C  0.18300636  0.41970021  0.31023581     0.20400
H2545       H  0.18912654  0.47800996  0.28219678     0.10100
C2546       C  0.19491493  0.42054472  0.32565116    -0.15900
C2547       C  0.19122897  0.41023139  0.34177670     0.03100
C2548       C  0.17527531  0.39877672  0.34276566    -0.11200
C2549       C  0.16406885  0.39695745  0.32685352    -0.01200
C2550       C  0.16780919  0.40729200  0.31069064    -0.06400
H2551       H  0.20697270  0.42960525  0.32526178     0.06100
H2552       H  0.15169039  0.38835255  0.32734393     0.09500
Br2553     Br  0.17566354  0.46312385  0.31769254    -0.06100
Br2554     Br  0.20371865  0.42324938  0.23938134    -0.03000
Br2555     Br  0.20857559  0.41226743  0.36196705    -0.00200
Br2556     Br  0.15095339  0.40509162  0.29015645    -0.04600
C2557       C  0.19536817  0.54259963  0.26340218    -0.12000
C2558       C  0.20878572  0.55445920  0.27160093     0.03500
C2559       C  0.20402800  0.56562621  0.28679144    -0.12500
C2560       C  0.18616965  0.56504381  0.29448852     0.18400
C2561       C  0.17266894  0.55335039  0.28633776    -0.09500
C2562       C  0.17726516  0.54244667  0.27079759    -0.02500
H2563       H  0.21450117  0.57454505  0.29294328     0.04900
C2564       C  0.18241370  0.57609503  0.31153491     0.20400
H2565       H  0.16680332  0.53340511  0.26482111     0.10100
C2566       C  0.18147193  0.59561302  0.31054286    -0.15900
C2567       C  0.17872911  0.60642939  0.32660442     0.03100
C2568       C  0.17686105  0.59766826  0.34414010    -0.11200
C2569       C  0.17847940  0.57812985  0.34498849    -0.01200
C2570       C  0.18129584  0.56744250  0.32904068    -0.06400
H2571       H  0.18295017  0.60246964  0.29719242     0.06100
H2572       H  0.17718785  0.57091538  0.35816949     0.09500
Br2573     Br  0.14789424  0.55164738  0.29609979    -0.06100
Br2574     Br  0.23385077  0.55645484  0.26266260    -0.03000
Br2575     Br  0.17851127  0.63295962  0.32368841    -0.00200
Br2576     Br  0.18416527  0.54105479  0.33204369    -0.04600
C2577       C  0.25431277  0.54206751  0.20934114    -0.12000
C2578       C  0.25249029  0.56173810  0.20974284     0.03500
C2579       C  0.26792419  0.57311202  0.20608773    -0.12500
C2580       C  0.28522008  0.56545240  0.20156001     0.18400
C2581       C  0.28701486  0.54598801  0.20065608    -0.09500
C2582       C  0.27176663  0.53451729  0.20474062    -0.02500
H2583       H  0.26638943  0.58809821  0.20659387     0.04900
C2584       C  0.30104591  0.57795684  0.19706152     0.20400
H2585       H  0.27352381  0.51957417  0.20396567     0.10100
C2586       C  0.31568336  0.58012752  0.20977202    -0.15900
C2587       C  0.33138888  0.59093372  0.20536268     0.03100
C2588       C  0.33281142  0.59954163  0.18764991    -0.11200
C2589       C  0.31751880  0.59802766  0.17544320    -0.01200
C2590       C  0.30183149  0.58746628  0.18000659    -0.06400
H2591       H  0.31496952  0.57317481  0.22313359     0.06100
H2592       H  0.31792330  0.60454938  0.16187557     0.09500
Br2593     Br  0.30981014  0.53450863  0.19298415    -0.06100
Br2594     Br  0.22965871  0.57437745  0.21535766    -0.03000
Br2595     Br  0.35009437  0.59313747  0.22427969    -0.00200
Br2596     Br  0.28225223  0.58556752  0.16197928    -0.04600
C2597       C  0.25270937  0.45420932  0.20626967    -0.12000
C2598       C  0.26096560  0.44249168  0.21981434     0.03500
C2599       C  0.27624670  0.43130983  0.21514159    -0.12500
C2600       C  0.28379476  0.43160587  0.19717389     0.18400
C2601       C  0.27519902  0.44274727  0.18349151    -0.09500
C2602       C  0.25976795  0.45378078  0.18804975    -0.02500
H2603       H  0.28259296  0.42268128  0.22573898     0.04900
C2604       C  0.30133367  0.42124984  0.19336589     0.20400
H2605       H  0.25362008  0.46250019  0.17741134     0.10100
C2606       C  0.30124639  0.40173821  0.19202590    -0.15900
C2607       C  0.31770031  0.39179144  0.18832940     0.03100
C2608       C  0.33474153  0.40139686  0.18596816    -0.11200
C2609       C  0.33475320  0.42088454  0.18806014    -0.01200
C2610       C  0.31838156  0.43073669  0.19170618    -0.06400
H2611       H  0.28830311  0.39421834  0.19379143     0.06100
H2612       H  0.34756197  0.42866297  0.18645089     0.09500
Br2613     Br  0.28427612  0.44358122  0.15844518    -0.06100
Br2614     Br  0.25186837  0.44066798  0.24485616    -0.03000
Br2615     Br  0.31611803  0.36515460  0.18763153    -0.00200
Br2616     Br  0.32005344  0.45723044  0.19463154    -0.04600
C2617       C  0.04463351  0.50184603  0.22912152    -0.12000
C2618       C  0.05553712  0.51770355  0.22474451     0.03500
C2619       C  0.07458825  0.51583834  0.22087712    -0.12500
C2620       C  0.08335379  0.49839494  0.22113291     0.18400
C2621       C  0.07244692  0.48250845  0.22498108    -0.09500
C2622       C  0.05336690  0.48431196  0.22879166    -0.02500
H2623       H  0.08272730  0.52819529  0.21794240     0.04900
C2624       C  0.10392102  0.49728324  0.21805066     0.20400
H2625       H  0.04549531  0.47192257  0.23227018     0.10100
C2626       C  0.11553141  0.49105219  0.23248763    -0.15900
C2627       C  0.13495076  0.49064304  0.23039953     0.03100
C2628       C  0.14327775  0.49686045  0.21367724    -0.11200
C2629       C  0.13168308  0.50320707  0.19929290    -0.01200
C2630       C  0.11223613  0.50324585  0.20126875    -0.06400
H2631       H  0.10945641  0.48672397  0.24558870     0.06100
H2632       H  0.13776473  0.50783134  0.18629574     0.09500
Br2633     Br  0.08293074  0.45798586  0.22525082    -0.06100
Br2634     Br  0.04540583  0.54236844  0.22351232    -0.03000
Br2635     Br  0.14943850  0.48258760  0.25134290    -0.00200
Br2636     Br  0.09756673  0.51077382  0.18031436    -0.04600
C2637       C  0.04044009  0.46301430  0.29576155    -0.12000
C2638       C  0.04638781  0.46798700  0.31382991     0.03500
C2639       C  0.05978780  0.45733306  0.32284110    -0.12500
C2640       C  0.06737026  0.44160242  0.31436462     0.18400
C2641       C  0.06222046  0.43707004  0.29605256    -0.09500
C2642       C  0.04898858  0.44793922  0.28677025    -0.02500
H2643       H  0.06379836  0.46089580  0.33691573     0.04900
C2644       C  0.07859997  0.42904819  0.32600262     0.20400
H2645       H  0.04461822  0.44395358  0.27293132     0.10100
C2646       C  0.06952597  0.41922484  0.34021389    -0.15900
C2647       C  0.07954781  0.40882211  0.35315409     0.03100
C2648       C  0.09906827  0.40800086  0.35186690    -0.11200
C2649       C  0.10812154  0.41734121  0.33720799    -0.01200
C2650       C  0.09805041  0.42805856  0.32445628    -0.06400
H2651       H  0.05453771  0.42000956  0.34147020     0.06100
H2652       H  0.12314263  0.41696480  0.33615047     0.09500
Br2653     Br  0.07166063  0.41534428  0.28388330    -0.06100
Br2654     Br  0.03678974  0.48893532  0.32733603    -0.03000
Br2655     Br  0.06573096  0.39574741  0.37193826    -0.00200
Br2656     Br  0.11143441  0.44212473  0.30609688    -0.04600
C2657       C  0.03668076  0.54349426  0.29436652    -0.12000
C2658       C  0.05483391  0.53662510  0.29722518     0.03500
C2659       C  0.06772440  0.54708409  0.30740554    -0.12500
C2660       C  0.06287311  0.56448752  0.31469799     0.18400
C2661       C  0.04529297  0.57203437  0.31043670    -0.09500
C2662       C  0.03232910  0.56151034  0.30039798    -0.02500
H2663       H  0.08138833  0.54138136  0.31011301     0.04900
C2664       C  0.07585676  0.57407038  0.32754208     0.20400
H2665       H  0.01854402  0.56708226  0.29805901     0.10100
C2666       C  0.09278027  0.58113378  0.32090121    -0.15900
C2667       C  0.10521242  0.59038392  0.33278009     0.03100
C2668       C  0.10058585  0.59300154  0.35179267    -0.11200
C2669       C  0.08379474  0.58529435  0.35836539    -0.01200
C2670       C  0.07170074  0.57571428  0.34657200    -0.06400
H2671       H  0.09635847  0.57938707  0.30637613     0.06100
H2672       H  0.08004283  0.58645824  0.37289403     0.09500
Br2673     Br  0.03830121  0.59650827  0.31837678    -0.06100
Br2674     Br  0.06279194  0.51323384  0.28711890    -0.03000
Br2675     Br  0.12834925  0.59822674  0.32196780    -0.00200
Br2676     Br  0.05012016  0.56420814  0.35735994    -0.04600
C2677       C  0.95293209  0.53994632  0.29339250    -0.12000
C2678       C  0.94595156  0.53461714  0.31103518     0.03500
C2679       C  0.93238977  0.54533908  0.31971876    -0.12500
C2680       C  0.92558841  0.56150603  0.31136547     0.18400
C2681       C  0.93173540  0.56645497  0.29344421    -0.09500
C2682       C  0.94519268  0.55554919  0.28446660    -0.02500
H2683       H  0.92760738  0.54143172  0.33347147     0.04900
C2684       C  0.91381841  0.57378179  0.32280473     0.20400
H2685       H  0.95029559  0.55982747  0.27095756     0.10100
C2686       C  0.92262684  0.58580303  0.33535491    -0.15900
C2687       C  0.91246528  0.59509069  0.34904031     0.03100
C2688       C  0.89308165  0.59250643  0.35023294    -0.11200
C2689       C  0.88412937  0.58119865  0.33704007    -0.01200
C2690       C  0.89439308  0.57164634  0.32353360    -0.06400
H2691       H  0.93759830  0.58740967  0.33493390     0.06100
H2692       H  0.86922663  0.57911488  0.33778152     0.09500
Br2693     Br  0.92283388  0.58844710  0.28129395    -0.06100
Br2694     Br  0.95430515  0.51305131  0.32445525    -0.03000
Br2695     Br  0.92572887  0.61130439  0.36555130    -0.00200
Br2696     Br  0.88157929  0.55498960  0.30712697    -0.04600
C2697       C  0.95841254  0.45820626  0.29597763    -0.12000
C2698       C  0.93972004  0.46367990  0.29821772     0.03500
C2699       C  0.92757867  0.45262752  0.30870775    -0.12500
C2700       C  0.93383425  0.43619916  0.31714405     0.18400
C2701       C  0.95225040  0.43033161  0.31427490    -0.09500
C2702       C  0.96434613  0.44123675  0.30359048    -0.02500
H2703       H  0.91335657  0.45711002  0.31073161     0.04900
C2704       C  0.92136371  0.42600898  0.32989250     0.20400
H2705       H  0.97870184  0.43696515  0.30211218     0.10100
C2706       C  0.91102376  0.41088993  0.32330609    -0.15900
C2707       C  0.89930440  0.40083290  0.33521611     0.03100
C2708       C  0.89776349  0.40600481  0.35416440    -0.11200
C2709       C  0.90832921  0.42113213  0.36063866    -0.01200
C2710       C  0.91999628  0.43110654  0.34869016    -0.06400
H2711       H  0.91222028  0.40680485  0.30886940     0.06100
H2712       H  0.90732400  0.42543956  0.37502305     0.09500
Br2713     Br  0.96175694  0.40823267  0.32581586    -0.06100
Br2714     Br  0.93005715  0.48597713  0.28710488    -0.03000
Br2715     Br  0.88678111  0.37967463  0.32477201    -0.00200
Br2716     Br  0.93392049  0.45158496  0.35862178    -0.04600
C2717       C  0.85367531  0.50340497  0.20813480    -0.12000
C2718       C  0.86400875  0.51911752  0.21390670     0.03500
C2719       C  0.88345631  0.51806400  0.21540187    -0.12500
C2720       C  0.89324074  0.50216039  0.20963186     0.18400
C2721       C  0.88296958  0.48738066  0.20169795    -0.09500
C2722       C  0.86345886  0.48781080  0.20166243    -0.02500
H2723       H  0.89091598  0.52965584  0.22145912     0.04900
C2724       C  0.91358647  0.50031138  0.21395342     0.20400
H2725       H  0.85587060  0.47598475  0.19621101     0.10100
C2726       C  0.91954039  0.48463426  0.22392996    -0.15900
C2727       C  0.93796820  0.48259931  0.22982434     0.03100
C2728       C  0.95115561  0.49703272  0.22661311    -0.11200
C2729       C  0.94530866  0.51254757  0.21610853    -0.01200
C2730       C  0.92689444  0.51416067  0.20962213    -0.06400
H2731       H  0.90958310  0.47390921  0.22758530     0.06100
H2732       H  0.95502088  0.52368463  0.21312176     0.09500
Br2733     Br  0.89490346  0.46669398  0.18983862    -0.06100
Br2734     Br  0.85254259  0.54234153  0.22013985    -0.03000
Br2735     Br  0.94331514  0.45962652  0.24253564    -0.00200
Br2736     Br  0.92087831  0.53532921  0.19449485    -0.04600
C2737       C  0.74621711  0.45494948  0.20815729    -0.12000
C2738       C  0.73839888  0.44330591  0.22200842     0.03500
C2739       C  0.72336743  0.43167086  0.21774895    -0.12500
C2740       C  0.71570720  0.43123904  0.19984442     0.18400
C2741       C  0.72353384  0.44273923  0.18591367    -0.09500
C2742       C  0.73879065  0.45423619  0.19008469    -0.02500
H2743       H  0.71753739  0.42290236  0.22855284     0.04900
C2744       C  0.69902224  0.41940099  0.19645082     0.20400
H2745       H  0.74440284  0.46319630  0.17932576     0.10100
C2746       C  0.68254104  0.42304507  0.20627634    -0.15900
C2747       C  0.66625075  0.41274363  0.20303764     0.03100
C2748       C  0.66612940  0.39863441  0.18933961    -0.11200
C2749       C  0.68304736  0.39427085  0.18046325    -0.01200
C2750       C  0.69937087  0.40425474  0.18408973    -0.06400
H2751       H  0.68223628  0.43429566  0.21627597     0.06100
H2752       H  0.68355727  0.38317510  0.17030232     0.09500
Br2753     Br  0.71307964  0.44435560  0.16139357    -0.06100
Br2754     Br  0.74795136  0.44199097  0.24691811    -0.03000
Br2755     Br  0.64460381  0.41961536  0.21703075    -0.00200
Br2756     Br  0.72185708  0.39626468  0.17218722    -0.04600
C2757       C  0.73996644  0.54172378  0.21187401    -0.12000
C2758       C  0.72422390  0.53528040  0.20209385     0.03500
C2759       C  0.70908553  0.54717810  0.19916501    -0.12500
C2760       C  0.70934608  0.56558686  0.20568252     0.18400
C2761       C  0.72498931  0.57199200  0.21551816    -0.09500
C2762       C  0.74012194  0.56011741  0.21849036    -0.02500
H2763       H  0.69725088  0.54222930  0.19128262     0.04900
C2764       C  0.69389897  0.57826279  0.20062104     0.20400
H2765       H  0.75208211  0.56528810  0.22604018     0.10100
C2766       C  0.68120875  0.58437427  0.21415449    -0.15900
C2767       C  0.66597259  0.59562638  0.20928308     0.03100
C2768       C  0.66322380  0.60081536  0.19050218    -0.11200
C2769       C  0.67649953  0.59518525  0.17724424    -0.01200
C2770       C  0.69160656  0.58409326  0.18211826    -0.06400
H2771       H  0.68306683  0.58021301  0.22851122     0.06100
H2772       H  0.67488728  0.59889419  0.16273363     0.09500
Br2773     Br  0.72665736  0.59709027  0.22436426    -0.06100
Br2774     Br  0.72329413  0.51101167  0.19100967    -0.03000
Br2775     Br  0.64991261  0.60381010  0.22891827    -0.00200
Br2776     Br  0.70877743  0.57726762  0.16286356    -0.04600
C2777       C  0.80051970  0.54498401  0.26444673    -0.12000
C2778       C  0.81824386  0.54503705  0.27286701     0.03500
C2779       C  0.82149753  0.55596341  0.28864960    -0.12500
C2780       C  0.80736089  0.56695690  0.29634085     0.18400
C2781       C  0.78982840  0.56732876  0.28768051    -0.09500
C2782       C  0.78650152  0.55631170  0.27198452    -0.02500
H2783       H  0.83500186  0.55549636  0.29529471     0.04900
C2784       C  0.81085389  0.57695650  0.31402723     0.20400
H2785       H  0.77281728  0.55649570  0.26570041     0.10100
C2786       C  0.81221991  0.59644320  0.31418681    -0.15900
C2787       C  0.81599926  0.60613897  0.33071451     0.03100
C2788       C  0.81837511  0.59624596  0.34759114    -0.11200
C2789       C  0.81661257  0.57670024  0.34726292    -0.01200
C2790       C  0.81301768  0.56711016  0.33078885    -0.06400
H2791       H  0.81051326  0.60412943  0.30133609     0.06100
H2792       H  0.81856667  0.56862618  0.35983275     0.09500
Br2793     Br  0.76978129  0.58201267  0.29728723    -0.06100
Br2794     Br  0.83804260  0.52927512  0.26466216    -0.03000
Br2795     Br  0.81745170  0.63274734  0.32911374    -0.00200
Br2796     Br  0.81117597  0.54046821  0.33196291    -0.04600
C2797       C  0.82118965  0.40009284  0.34213256    -0.12000
C2798       C  0.80576229  0.41218941  0.34081740     0.03500
C2799       C  0.80301903  0.42281200  0.32473401    -0.12500
C2800       C  0.81545564  0.42188223  0.30977976     0.18400
C2801       C  0.83075459  0.40973361  0.31090289    -0.09500
C2802       C  0.83333088  0.39877605  0.32685485    -0.02500
H2803       H  0.79119342  0.43213415  0.32398654     0.04900
C2804       C  0.81241886  0.43434808  0.29360741     0.20400
H2805       H  0.84553020  0.38996701  0.32773939     0.10100
C2806       C  0.81473266  0.45356462  0.29593038    -0.15900
C2807       C  0.81024413  0.46606972  0.28167269     0.03100
C2808       C  0.80352736  0.45937851  0.26443891    -0.11200
C2809       C  0.80164868  0.44003136  0.26205005    -0.01200
C2810       C  0.80574732  0.42759690  0.27651344    -0.06400
H2811       H  0.81971461  0.45889085  0.30910409     0.06100
H2812       H  0.79620986  0.43455549  0.24912667     0.09500
Br2813     Br  0.84926948  0.40882017  0.29172571    -0.06100
Br2814     Br  0.78782805  0.41487521  0.36039425    -0.03000
Br2815     Br  0.81373703  0.49198635  0.28686663    -0.00200
Br2816     Br  0.80064893  0.40167148  0.27280996    -0.04600
C2817       C  0.14479337  0.50010929  0.80122376    -0.12000
C2818       C  0.13300115  0.49079385  0.81401242     0.03500
C2819       C  0.11377212  0.48938032  0.81055730    -0.12500
C2820       C  0.10580593  0.49694549  0.79440757     0.18400
C2821       C  0.11750223  0.50615026  0.78161221    -0.09500
C2822       C  0.13667496  0.50779083  0.78512301    -0.02500
H2823       H  0.10496150  0.48233065  0.82056256     0.04900
C2824       C  0.08533171  0.49517478  0.79107180     0.20400
H2825       H  0.14534830  0.51482470  0.77498874     0.10100
C2826       C  0.07302741  0.50835986  0.79853144    -0.15900
C2827       C  0.05380604  0.50775331  0.79467416     0.03100
C2828       C  0.04640358  0.49370344  0.78298487    -0.11200
C2829       C  0.05884369  0.48009033  0.77621709    -0.01200
C2830       C  0.07796319  0.48073813  0.78013100    -0.06400
H2831       H  0.07846457  0.51939338  0.80721556     0.06100
H2832       H  0.05384498  0.46911698  0.76720256     0.09500
Br2833     Br  0.10782754  0.51655253  0.75902102    -0.06100
Br2834     Br  0.14206322  0.48056056  0.83694875    -0.03000
Br2835     Br  0.03862383  0.52641016  0.80610782    -0.00200
Br2836     Br  0.09363086  0.46181394  0.76980669    -0.04600
C2837       C  0.03953714  0.54145512  0.71902416    -0.12000
C2838       C  0.05167564  0.55311294  0.72927384     0.03500
C2839       C  0.06423585  0.56474202  0.71980144    -0.12500
C2840       C  0.06482717  0.56497686  0.70031905     0.18400
C2841       C  0.05296089  0.55332084  0.69018203    -0.09500
C2842       C  0.04057989  0.54175198  0.69947101    -0.02500
H2843       H  0.07355938  0.57361302  0.72762206     0.04900
C2844       C  0.07844178  0.57651400  0.69029818     0.20400
H2845       H  0.03166470  0.53291988  0.69115242     0.10100
C2846       C  0.09511539  0.56820030  0.68480183    -0.15900
C2847       C  0.10637850  0.57660469  0.67141714     0.03100
C2848       C  0.10107692  0.59375743  0.66348712    -0.11200
C2849       C  0.08506349  0.60274951  0.67000974    -0.01200
C2850       C  0.07360073  0.59411117  0.68319454    -0.06400
H2851       H  0.09881989  0.55459714  0.69015075     0.06100
H2852       H  0.08088379  0.61594624  0.66404200     0.09500
Br2853     Br  0.05322092  0.55263741  0.66347602    -0.06100
Br2854     Br  0.05175702  0.55425742  0.75593910    -0.03000
Br2855     Br  0.12867321  0.56384714  0.66430278    -0.00200
Br2856     Br  0.05069592  0.60593158  0.68990503    -0.04600
C2857       C  0.03789183  0.45655872  0.71604177    -0.12000
C2858       C  0.05592170  0.46317297  0.71201649     0.03500
C2859       C  0.06825173  0.45199450  0.70202290    -0.12500
C2860       C  0.06296422  0.43415858  0.69623006     0.18400
C2861       C  0.04552475  0.42701439  0.70144913    -0.09500
C2862       C  0.03310657  0.43822222  0.71128913    -0.02500
H2863       H  0.08186563  0.45736038  0.69841370     0.04900
C2864       C  0.07533734  0.42372294  0.68374011     0.20400
H2865       H  0.01939865  0.43286219  0.71452376     0.10100
C2866       C  0.08925999  0.41241342  0.69121851    -0.15900
C2867       C  0.10152988  0.40275770  0.67962530     0.03100
C2868       C  0.09994410  0.40447789  0.66002368    -0.11200
C2869       C  0.08568534  0.41572395  0.65272057    -0.01200
C2870       C  0.07351575  0.42530436  0.66437005    -0.06400
H2871       H  0.09059539  0.41113349  0.70617171     0.06100
H2872       H  0.08415248  0.41742625  0.63783858     0.09500
Br2873     Br  0.03793314  0.40231885  0.69479637    -0.06100
Br2874     Br  0.06459026  0.48703147  0.72037050    -0.03000
Br2875     Br  0.11965494  0.38736810  0.69180782    -0.00200
Br2876     Br  0.05478940  0.44071934  0.65324798    -0.04600
C2877       C  0.95820907  0.45586907  0.71544485    -0.12000
C2878       C  0.94037068  0.45209719  0.72274279     0.03500
C2879       C  0.92754299  0.44178084  0.71222203    -0.12500
C2880       C  0.93225501  0.43506654  0.69450579     0.18400
C2881       C  0.95003873  0.43877670  0.68730144    -0.09500
C2882       C  0.96280684  0.44884683  0.69779034    -0.02500
H2883       H  0.91374360  0.43926855  0.71771869     0.04900
C2884       C  0.91821584  0.42545115  0.68297550     0.20400
H2885       H  0.97637265  0.45153741  0.69181636     0.10100
C2886       C  0.90347900  0.43577701  0.67554250    -0.15900
C2887       C  0.89130264  0.42786184  0.66261467     0.03100
C2888       C  0.89395750  0.40929872  0.65673204    -0.11200
C2889       C  0.90811258  0.39869813  0.66499405    -0.01200
C2890       C  0.92015660  0.40660095  0.67805375    -0.06400
H2891       H  0.90167948  0.45018382  0.67953150     0.06100
H2892       H  0.91009970  0.38432876  0.66097514     0.09500
Br2893     Br  0.95721534  0.43162317  0.66260373    -0.06100
Br2894     Br  0.93234361  0.46164650  0.74624646    -0.03000
Br2895     Br  0.87080138  0.44282558  0.65438005    -0.00200
Br2896     Br  0.93915040  0.39119480  0.68869258    -0.04600
C2897       C  0.95970045  0.54197586  0.71836369    -0.12000
C2898       C  0.96295968  0.56132588  0.71656774     0.03500
C2899       C  0.94988524  0.57259078  0.70748453    -0.12500
C2900       C  0.93352989  0.56498909  0.70003823     0.18400
C2901       C  0.93014155  0.54578820  0.70208639    -0.09500
C2902       C  0.94305928  0.53455381  0.71128815    -0.02500
H2903       H  0.95279949  0.58726873  0.70561774     0.04900
C2904       C  0.92132172  0.57671588  0.68825924     0.20400
H2905       H  0.94033121  0.51976433  0.71237524     0.10100
C2906       C  0.92811906  0.58306085  0.67110612    -0.15900
C2907       C  0.91655685  0.59236158  0.65851545     0.03100
C2908       C  0.89761640  0.59525234  0.66292570    -0.11200
C2909       C  0.89117507  0.58990662  0.68063470    -0.01200
C2910       C  0.90286909  0.58083649  0.69329545    -0.06400
H2911       H  0.94244916  0.58040356  0.66731901     0.06100
H2912       H  0.87684000  0.59237348  0.68452386     0.09500
Br2913     Br  0.90895817  0.53386170  0.69103782    -0.06100
Br2914     Br  0.98569508  0.57301393  0.72435268    -0.03000
Br2915     Br  0.92781123  0.60131749  0.63596116    -0.00200
Br2916     Br  0.89306795  0.57442695  0.71729409    -0.04600
C2917       C  0.85344832  0.49718924  0.80383333    -0.12000
C2918       C  0.86595007  0.50831988  0.81421264     0.03500
C2919       C  0.88509367  0.50785130  0.81027596    -0.12500
C2920       C  0.89225648  0.49625934  0.79632541     0.18400
C2921       C  0.87991649  0.48480414  0.78637988    -0.09500
C2922       C  0.86084205  0.48537345  0.79010641    -0.02500
H2923       H  0.89447755  0.51663146  0.81813190     0.04900
C2924       C  0.91242905  0.49703326  0.79173387     0.20400
H2925       H  0.85169784  0.47667348  0.78189417     0.10100
C2926       C  0.92463748  0.48336489  0.79848697    -0.15900
C2927       C  0.94374188  0.48381985  0.79415606     0.03100
C2928       C  0.95105436  0.49838009  0.78299416    -0.11200
C2929       C  0.93859808  0.51208951  0.77647412    -0.01200
C2930       C  0.91959362  0.51141369  0.78057375    -0.06400
H2931       H  0.91923618  0.47219102  0.80707166     0.06100
H2932       H  0.94348762  0.52317782  0.76748474     0.09500
Br2933     Br  0.88821891  0.46848760  0.76713247    -0.06100
Br2934     Br  0.85813210  0.52380567  0.83444814    -0.03000
Br2935     Br  0.95884321  0.46419506  0.80405308    -0.00200
Br2936     Br  0.90372442  0.52995969  0.76976272    -0.04600
C2937       C  0.81906583  0.40253766  0.67130604    -0.12000
C2938       C  0.82314483  0.39659595  0.68961144     0.03500
C2939       C  0.81839585  0.40778110  0.70490083    -0.12500
C2940       C  0.80971424  0.42513189  0.70249012     0.18400
C2941       C  0.80553859  0.43102402  0.68420935    -0.09500
C2942       C  0.81001259  0.41971034  0.66893093    -0.02500
H2943       H  0.82180191  0.40303167  0.71879007     0.04900
C2944       C  0.80568385  0.43701066  0.71912533     0.20400
H2945       H  0.80707383  0.42475571  0.65503616     0.10100
C2946       C  0.81431231  0.45449857  0.72089528    -0.15900
C2947       C  0.81087192  0.46598491  0.73630942     0.03100
C2948       C  0.79904905  0.45985880  0.75075702    -0.11200
C2949       C  0.79068875  0.44223840  0.74918556    -0.01200
C2950       C  0.79366520  0.43100442  0.73348132    -0.06400
H2951       H  0.82377450  0.45927846  0.71017571     0.06100
H2952       H  0.78126584  0.43744585  0.75994071     0.09500
Br2953     Br  0.79379959  0.45446591  0.67926152    -0.06100
Br2954     Br  0.83489321  0.37317042  0.69464710    -0.03000
Br2955     Br  0.82319619  0.48966914  0.73726380    -0.00200
Br2956     Br  0.77998864  0.40813592  0.73171311    -0.04600
C2957       C  0.81896026  0.60103655  0.67483376    -0.12000
C2958       C  0.80690005  0.58537166  0.67591295     0.03500
C2959       C  0.80374011  0.57651825  0.69298728    -0.12500
C2960       C  0.81209659  0.58279902  0.70941404     0.18400
C2961       C  0.82367492  0.59861175  0.70859052    -0.09500
C2962       C  0.82696326  0.60757419  0.69149160    -0.02500
H2963       H  0.79481934  0.56435877  0.69341572     0.04900
C2964       C  0.80875763  0.57214972  0.72694526     0.20400
H2965       H  0.83631742  0.61939406  0.69119687     0.10100
C2966       C  0.82349836  0.56269297  0.73563390    -0.15900
C2967       C  0.82033330  0.55063499  0.75075107     0.03100
C2968       C  0.80198238  0.54740713  0.75710305    -0.11200
C2969       C  0.78740843  0.55745316  0.74878288    -0.01200
C2970       C  0.79066402  0.56982795  0.73408057    -0.06400
H2971       H  0.83749156  0.56429202  0.73028963     0.06100
H2972       H  0.77329748  0.55569079  0.75375693     0.09500
Br2973     Br  0.83518022  0.60855385  0.73046770    -0.06100
Br2974     Br  0.79412175  0.57480440  0.65492794    -0.03000
Br2975     Br  0.84152415  0.53827930  0.76127421    -0.00200
Br2976     Br  0.76991925  0.58354154  0.72442492    -0.04600
C2977       C  0.74246006  0.54247007  0.81033106    -0.12000
C2978       C  0.72525503  0.53549765  0.81683993     0.03500
C2979       C  0.71041030  0.54767620  0.82006189    -0.12500
C2980       C  0.71201389  0.56684878  0.81651917     0.18400
C2981       C  0.72933168  0.57389443  0.81049500    -0.09500
C2982       C  0.74433205  0.56177386  0.80761144    -0.02500
H2983       H  0.69739525  0.54209182  0.82522535     0.04900
C2984       C  0.69546003  0.57906054  0.81932572     0.20400
H2985       H  0.75735522  0.56743111  0.80255124     0.10100
C2986       C  0.69621473  0.59367473  0.83223535    -0.15900
C2987       C  0.68046755  0.60446478  0.83631154     0.03100
C2988       C  0.66321338  0.60048776  0.82761485    -0.11200
C2989       C  0.66275094  0.58622278  0.81422035    -0.01200
C2990       C  0.67854094  0.57566436  0.81001997    -0.06400
H2991       H  0.70904711  0.59637926  0.83963009     0.06100
H2992       H  0.64985629  0.58289012  0.80719684     0.09500
Br2993     Br  0.73300292  0.59975059  0.80486784    -0.06100
Br2994     Br  0.72118730  0.50959959  0.82218638    -0.03000
Br2995     Br  0.68361762  0.62350806  0.85473220    -0.00200
Br2996     Br  0.67611594  0.55673931  0.79136685    -0.04600
C2997       C  0.74431716  0.45537219  0.80851357    -0.12000
C2998       C  0.73795580  0.45112760  0.82665877     0.03500
C2999       C  0.72333295  0.43843436  0.82913681    -0.12500
C3000       C  0.71484922  0.42977702  0.81386195     0.18400
C3001       C  0.72138026  0.43372313  0.79585062    -0.09500
C3002       C  0.73593141  0.44639000  0.79330736    -0.02500
H3003       H  0.71809908  0.43578714  0.84302281     0.04900
C3004       C  0.69771017  0.41871280  0.81682786     0.20400
H3005       H  0.74074067  0.44918436  0.77930101     0.10100
C3006       C  0.68075900  0.42658527  0.81161160    -0.15900
C3007       C  0.66390499  0.41786447  0.81575744     0.03100
C3008       C  0.66372263  0.40067263  0.82563303    -0.11200
C3009       C  0.68092813  0.39235441  0.82996790    -0.01200
C3010       C  0.69779561  0.40124669  0.82567630    -0.06400
H3011       H  0.68063668  0.43999433  0.80468337     0.06100
H3012       H  0.68132559  0.37922016  0.83736200     0.09500
Br3013     Br  0.71084736  0.42209332  0.77429987    -0.06100
Br3014     Br  0.74751539  0.46312871  0.84851544    -0.03000
Br3015     Br  0.64208801  0.43117624  0.80781942    -0.00200
Br3016     Br  0.72063030  0.38921991  0.83225880    -0.04600
C3017       C  0.77533858  0.50210500  0.05606142    -0.12000
C3018       C  0.77859958  0.48597165  0.06692290     0.03500
C3019       C  0.78202130  0.48754216  0.08601110    -0.12500
C3020       C  0.78259794  0.50494970  0.09474108     0.18400
C3021       C  0.78093468  0.52111956  0.08371896    -0.09500
C3022       C  0.77719291  0.51960291  0.06462450    -0.02500
H3023       H  0.78395921  0.47501217  0.09419348     0.04900
C3024       C  0.78547005  0.50569790  0.11522522     0.20400
H3025       H  0.77497477  0.53219325  0.05662592     0.10100
C3026       C  0.80170641  0.49797130  0.12276931    -0.15900
C3027       C  0.80470610  0.49752857  0.14200792     0.03100
C3028       C  0.79141935  0.50529644  0.15421779    -0.11200
C3029       C  0.77511578  0.51296594  0.14665029    -0.01200
C3030       C  0.77186857  0.51282638  0.12742197    -0.06400
H3031       H  0.81210430  0.49213414  0.11359440     0.06100
H3032       H  0.76450791  0.51847112  0.15579581     0.09500
Br3033     Br  0.78395130  0.54554855  0.09401205    -0.06100
Br3034     Br  0.77886646  0.46130043  0.05667923    -0.03000
Br3035     Br  0.82751800  0.48657767  0.15052053    -0.00200
Br3036     Br  0.74799622  0.52102883  0.11874948    -0.04600
C3037       C  0.70391113  0.46209998  0.04872580    -0.12000
C3038       C  0.68437454  0.46055805  0.04840545     0.03500
C3039       C  0.67527539  0.44926541  0.06135717    -0.12500
C3040       C  0.68526528  0.43947069  0.07493544     0.18400
C3041       C  0.70482972  0.44054751  0.07499387    -0.09500
C3042       C  0.71403760  0.45171562  0.06181813    -0.02500
H3043       H  0.66024087  0.44833629  0.06103782     0.04900
C3044       C  0.67470127  0.42903837  0.08928504     0.20400
H3045       H  0.72906110  0.45275046  0.06216354     0.10100
C3046       C  0.67448857  0.40951566  0.08920074    -0.15900
C3047       C  0.66284905  0.39947372  0.10130954     0.03100
C3048       C  0.65072377  0.40910703  0.11347037    -0.11200
C3049       C  0.65171842  0.42866741  0.11397740    -0.01200
C3050       C  0.66360388  0.43855993  0.10221223    -0.06400
H3051       H  0.68311704  0.40206919  0.07937406     0.06100
H3052       H  0.64311126  0.43644084  0.12357130     0.09500
Br3053     Br  0.71933045  0.42789429  0.09344450    -0.06100
Br3054     Br  0.66943831  0.47310791  0.03015049    -0.03000
Br3055     Br  0.66390658  0.37282578  0.09986466    -0.00200
Br3056     Br  0.66436229  0.46516445  0.10444010    -0.04600
C3057       C  0.71018241  0.54614692  0.05196878    -0.12000
C3058       C  0.71980651  0.56009533  0.06199848     0.03500
C3059       C  0.71059633  0.57001055  0.07610276    -0.12500
C3060       C  0.69190060  0.56630236  0.08037730     0.18400
C3061       C  0.68230102  0.55265504  0.07017267    -0.09500
C3062       C  0.69146390  0.54264984  0.05640947    -0.02500
H3063       H  0.71796803  0.58078068  0.08362190     0.04900
C3064       C  0.68199689  0.57716480  0.09476969     0.20400
H3065       H  0.68367565  0.53214795  0.04892680     0.10100
C3066       C  0.67737470  0.59580490  0.09121002    -0.15900
C3067       C  0.66431290  0.60510449  0.10229850     0.03100
C3068       C  0.65537864  0.59547238  0.11692414    -0.11200
C3069       C  0.66136435  0.57740989  0.12142673    -0.01200
C3070       C  0.67474512  0.56837166  0.11070178    -0.06400
H3071       H  0.68312706  0.60278670  0.07915233     0.06100
H3072       H  0.65525472  0.57008195  0.13311076     0.09500
Br3073     Br  0.65623595  0.54781471  0.07361768    -0.06100
Br3074     Br  0.74492684  0.56716744  0.05641580    -0.03000
Br3075     Br  0.65814016  0.63022906  0.09573222    -0.00200
Br3076     Br  0.68204501  0.54367097  0.11779800    -0.04600
C3077       C  0.79242047  0.49943043  0.86434675    -0.12000
C3078       C  0.80504847  0.49059570  0.87660039     0.03500
C3079       C  0.80187558  0.49080026  0.89595153    -0.12500
C3080       C  0.78619861  0.49962306  0.90355475     0.18400
C3081       C  0.77351314  0.50822454  0.89134719    -0.09500
C3082       C  0.77672320  0.50818040  0.87208169    -0.02500
H3083       H  0.81182008  0.48421156  0.90514861     0.04900
C3084       C  0.78328607  0.50004896  0.92417291     0.20400
H3085       H  0.76670466  0.51487911  0.86304467     0.10100
C3086       C  0.78640568  0.51663421  0.93399820    -0.15900
C3087       C  0.78221810  0.51805453  0.95305577     0.03100
C3088       C  0.77471243  0.50265476  0.96282871    -0.11200
C3089       C  0.77245611  0.48579840  0.95311637    -0.01200
C3090       C  0.77657234  0.48444940  0.93402959    -0.06400
H3091       H  0.79178712  0.52868371  0.92669501     0.06100
H3092       H  0.76648507  0.47385691  0.96013318     0.09500
Br3093     Br  0.75125586  0.51978008  0.90036557    -0.06100
Br3094     Br  0.82746364  0.47909483  0.86792026    -0.03000
Br3095     Br  0.78734627  0.54134375  0.96502100    -0.00200
Br3096     Br  0.77149298  0.46140349  0.92164521    -0.04600
C3097       C  0.65034467  0.59090217  0.90461777    -0.12000
C3098       C  0.64488144  0.57601427  0.91633315     0.03500
C3099       C  0.65784206  0.56785615  0.92828358    -0.12500
C3100       C  0.67624910  0.57416670  0.92888620     0.18400
C3101       C  0.68188937  0.58867748  0.91705283    -0.09500
C3102       C  0.66899003  0.59690786  0.90504878    -0.02500
H3103       H  0.65353365  0.55646825  0.93722340     0.04900
C3104       C  0.68920277  0.56517226  0.94197702     0.20400
H3105       H  0.67356107  0.60819947  0.89614483     0.10100
C3106       C  0.69573339  0.54728750  0.93794230    -0.15900
C3107       C  0.70577530  0.53720094  0.95115660     0.03100
C3108       C  0.70919631  0.54496964  0.96882631    -0.11200
C3109       C  0.70367474  0.56331695  0.97242682    -0.01200
C3110       C  0.69361363  0.57340217  0.95916776    -0.06400
H3111       H  0.69256164  0.54097473  0.92464616     0.06100
H3112       H  0.70618378  0.56940496  0.98596779     0.09500
Br3113     Br  0.70707145  0.59747525  0.91672377    -0.06100
Br3114     Br  0.62035024  0.56538353  0.91627278    -0.03000
Br3115     Br  0.71463527  0.51294252  0.94434862    -0.00200
Br3116     Br  0.68485192  0.59772437  0.96565889    -0.04600
C3117       C  0.70690982  0.46275438  0.96929906    -0.12000
C3118       C  0.68892005  0.46700873  0.96264835     0.03500
C3119       C  0.68041759  0.45534259  0.94977488    -0.12500
C3120       C  0.68926805  0.43921851  0.94349503     0.18400
C3121       C  0.70746914  0.43528030  0.94945472    -0.09500
C3122       C  0.71621294  0.44711516  0.96220272    -0.02500
H3123       H  0.66656735  0.45865600  0.94488004     0.04900
C3124       C  0.67875159  0.42677341  0.93105442     0.20400
H3125       H  0.73000636  0.44366535  0.96712824     0.10100
C3126       C  0.68385763  0.42534767  0.91232354    -0.15900
C3127       C  0.67234085  0.41622264  0.89956494     0.03100
C3128       C  0.65510933  0.40874631  0.90552540    -0.11200
C3129       C  0.65053022  0.40951300  0.92449282    -0.01200
C3130       C  0.66226098  0.41822568  0.93723101    -0.06400
H3131       H  0.69650930  0.43197021  0.90748627     0.06100
H3132       H  0.63767700  0.40339679  0.92945770     0.09500
Br3133     Br  0.72039615  0.41340121  0.94149722    -0.06100
Br3134     Br  0.67507335  0.48857969  0.97017660    -0.03000
Br3135     Br  0.68052691  0.41575003  0.87416759    -0.00200
Br3136     Br  0.65515286  0.41823952  0.96297264    -0.04600
C3137       C  0.54407829  0.03827134  0.29907235    -0.12000
C3138       C  0.55370529  0.03467668  0.31587238     0.03500
C3139       C  0.56381102  0.04885658  0.32445980    -0.12500
C3140       C  0.56476227  0.06666818  0.31664011     0.18400
C3141       C  0.55623486  0.07005409  0.29936993    -0.09500
C3142       C  0.54600838  0.05588065  0.29067648    -0.02500
H3143       H  0.57060068  0.04611373  0.33763520     0.04900
C3144       C  0.57326286  0.08168982  0.32778413     0.20400
H3145       H  0.53891361  0.05888968  0.27773155     0.10100
C3146       C  0.59194961  0.08652279  0.32517843    -0.15900
C3147       C  0.60091965  0.09886473  0.33735425     0.03100
C3148       C  0.59115072  0.10622250  0.35284631    -0.11200
C3149       C  0.57211355  0.10193014  0.35467337    -0.01200
C3150       C  0.56321568  0.08990339  0.34232989    -0.06400
H3151       H  0.59968559  0.08036191  0.31383869     0.06100
H3152       H  0.56403111  0.10767973  0.36597904     0.09500
Br3153     Br  0.55744620  0.09406674  0.28779132    -0.06100
Br3154     Br  0.55406817  0.01070729  0.32781046    -0.03000
Br3155     Br  0.62635557  0.10477935  0.33169556    -0.00200
Br3156     Br  0.53729877  0.08471414  0.34608674    -0.04600
C3157       C  0.45933776  0.04257628  0.29911340    -0.12000
C3158       C  0.43968165  0.04199170  0.29974877     0.03500
C3159       C  0.42997132  0.05598570  0.30906119    -0.12500
C3160       C  0.43943468  0.07053364  0.31787143     0.18400
C3161       C  0.45887894  0.07158766  0.31666876    -0.09500
C3162       C  0.46864217  0.05778146  0.30721464    -0.02500
H3163       H  0.41498683  0.05501677  0.31027376     0.04900
C3164       C  0.42910129  0.08267049  0.33062095     0.20400
H3165       H  0.48367840  0.05858521  0.30685169     0.10100
C3166       C  0.42457825  0.07568244  0.34820706    -0.15900
C3167       C  0.41507166  0.08654553  0.36112122     0.03100
C3168       C  0.40987670  0.10496497  0.35643101    -0.11200
C3169       C  0.41438989  0.11183151  0.33860153    -0.01200
C3170       C  0.42389351  0.10083181  0.32573270    -0.06400
H3171       H  0.42855439  0.06161686  0.35192212     0.06100
H3172       H  0.41073925  0.12589710  0.33467479     0.09500
Br3173     Br  0.47274580  0.09070907  0.32910490    -0.06100
Br3174     Br  0.42515814  0.02171580  0.29015074    -0.03000
Br3175     Br  0.40942871  0.07480044  0.38448960    -0.00200
Br3176     Br  0.42940348  0.11104830  0.30168604    -0.04600
C3177       C  0.45268310  0.96252517  0.29960674    -0.12000
C3178       C  0.45458675  0.94310294  0.29782921     0.03500
C3179       C  0.44273638  0.93118605  0.30779657    -0.12500
C3180       C  0.42906177  0.93839861  0.31969354     0.18400
C3181       C  0.42677990  0.95780172  0.32092939    -0.09500
C3182       C  0.43856247  0.96966406  0.31098284    -0.02500
H3183       H  0.44491101  0.91630039  0.30712781     0.04900
C3184       C  0.41954985  0.92587979  0.33301738     0.20400
H3185       H  0.43701242  0.98456223  0.31252406     0.10100
C3186       C  0.42491956  0.92668632  0.35170549    -0.15900
C3187       C  0.41669274  0.91520777  0.36504533     0.03100
C3188       C  0.40269890  0.90243037  0.35976999    -0.11200
C3189       C  0.39706592  0.90187202  0.34103043    -0.01200
C3190       C  0.40551888  0.91333199  0.32764541    -0.06400
H3191       H  0.43566306  0.93637566  0.35594511     0.06100
H3192       H  0.38648706  0.89207519  0.33666340     0.09500
Br3193     Br  0.40823525  0.96870885  0.33667557    -0.06100
Br3194     Br  0.47464948  0.93228562  0.28406790    -0.03000
Br3195     Br  0.42486644  0.91838787  0.39027754    -0.00200
Br3196     Br  0.39753442  0.91140487  0.30229716    -0.04600
C3197       C  0.53824079  0.95802949  0.30085152    -0.12000
C3198       C  0.55635487  0.95380949  0.29429475     0.03500
C3199       C  0.56726932  0.94087338  0.30387605    -0.12500
C3200       C  0.56040767  0.93181036  0.31966942     0.18400
C3201       C  0.54220933  0.93524786  0.32571334    -0.09500
C3202       C  0.53129354  0.94818483  0.31632063    -0.02500
H3203       H  0.58129284  0.93805731  0.29916364     0.04900
C3204       C  0.57271484  0.91979337  0.33061412     0.20400
H3205       H  0.51746582  0.95092246  0.32160179     0.10100
C3206       C  0.58425134  0.92802067  0.34396821    -0.15900
C3207       C  0.59423792  0.91703470  0.35647085     0.03100
C3208       C  0.59279955  0.89751141  0.35548499    -0.11200
C3209       C  0.58198973  0.88931935  0.34145789    -0.01200
C3210       C  0.57183108  0.90033047  0.32913638    -0.06400
H3211       H  0.58500105  0.94303399  0.34503376     0.06100
H3212       H  0.58079788  0.87431387  0.34059546     0.09500
Br3213     Br  0.53204039  0.92324179  0.34733079    -0.06100
Br3214     Br  0.56734643  0.96485436  0.27253950    -0.03000
Br3215     Br  0.60980148  0.92936510  0.37431595    -0.00200
Br3216     Br  0.55624242  0.88828956  0.31116523    -0.04600
C3217       C  0.49635607  0.85387742  0.21706624    -0.12000
C3218       C  0.50282336  0.86192346  0.23380630     0.03500
C3219       C  0.50255793  0.88130887  0.23616561    -0.12500
C3220       C  0.49556739  0.89309005  0.22226207     0.18400
C3221       C  0.48839082  0.88508750  0.20588153    -0.09500
C3222       C  0.48880645  0.86567240  0.20338818    -0.02500
H3223       H  0.50768342  0.88723208  0.24901888     0.04900
C3224       C  0.49596076  0.91363875  0.22519234     0.20400
H3225       H  0.48357445  0.85981884  0.19054911     0.10100
C3226       C  0.51250873  0.92354281  0.22207669    -0.15900
C3227       C  0.51380995  0.94265052  0.22603388     0.03100
C3228       C  0.49829829  0.95234956  0.23323161    -0.11200
C3229       C  0.48151026  0.94250042  0.23555906    -0.01200
C3230       C  0.48033352  0.92333836  0.23184474    -0.06400
H3231       H  0.52459731  0.91628429  0.21682795     0.06100
H3232       H  0.46951262  0.94946678  0.24137475     0.09500
Br3233     Br  0.47817295  0.90026045  0.18648182    -0.06100
Br3234     Br  0.51092451  0.84706078  0.25450105    -0.03000
Br3235     Br  0.53707553  0.95477971  0.22104112    -0.00200
Br3236     Br  0.45749443  0.91063752  0.23728424    -0.04600
C3237       C  0.54393745  0.74688059  0.20577089    -0.12000
C3238       C  0.55945695  0.74245678  0.21687133     0.03500
C3239       C  0.56996035  0.72653773  0.21303400    -0.12500
C3240       C  0.56523729  0.71478726  0.19820562     0.18400
C3241       C  0.55004190  0.71958500  0.18672915    -0.09500
C3242       C  0.53963051  0.73560517  0.19049413    -0.02500
H3243       H  0.58159133  0.72306004  0.22193535     0.04900
C3244       C  0.57548217  0.69701677  0.19575757     0.20400
H3245       H  0.52769423  0.73885515  0.18191568     0.10100
C3246       C  0.56607066  0.68022159  0.19873825    -0.15900
C3247       C  0.57487001  0.66306523  0.19615869     0.03100
C3248       C  0.59386548  0.66237216  0.19072323    -0.11200
C3249       C  0.60342894  0.67938561  0.18849487    -0.01200
C3250       C  0.59440723  0.69652327  0.19083301    -0.06400
H3251       H  0.55156344  0.68047969  0.20278442     0.06100
H3252       H  0.61784047  0.67944853  0.18415850     0.09500
Br3253     Br  0.54278327  0.70463501  0.16589310    -0.06100
Br3254     Br  0.56694354  0.75790345  0.23728705    -0.03000
Br3255     Br  0.55929628  0.64159019  0.19949273    -0.00200
Br3256     Br  0.60811718  0.71887561  0.18577227    -0.04600
C3257       C  0.39883313  0.66289506  0.18888208    -0.12000
C3258       C  0.40452482  0.66634617  0.20728726     0.03500
C3259       C  0.41526080  0.68214351  0.21137653    -0.12500
C3260       C  0.42049762  0.69465918  0.19728903     0.18400
C3261       C  0.41428089  0.69152932  0.17898968    -0.09500
C3262       C  0.40345274  0.67582633  0.17494784    -0.02500
H3263       H  0.41978141  0.68452882  0.22553869     0.04900
C3264       C  0.43299862  0.71050018  0.20174413     0.20400
H3265       H  0.39945928  0.67321553  0.16067465     0.10100
C3266       C  0.45223251  0.70757186  0.20257560    -0.15900
C3267       C  0.46457123  0.72224545  0.20634289     0.03100
C3268       C  0.45766477  0.74049687  0.20934045    -0.11200
C3269       C  0.43826504  0.74322733  0.20852739    -0.01200
C3270       C  0.42603166  0.72846602  0.20488632    -0.06400
H3271       H  0.45769642  0.69375979  0.20013212     0.06100
H3272       H  0.43246988  0.75689084  0.21098318     0.09500
Br3273     Br  0.42115292  0.70776594  0.15891556    -0.06100
Br3274     Br  0.39762679  0.64998029  0.22722239    -0.03000
Br3275     Br  0.49056615  0.71609896  0.20659821    -0.00200
Br3276     Br  0.39983028  0.73332433  0.20465118    -0.04600
C3277       C  0.45538619  0.79936001  0.26516252    -0.12000
C3278       C  0.45662989  0.78966279  0.28233556     0.03500
C3279       C  0.44465199  0.79413482  0.29698795    -0.12500
C3280       C  0.43149802  0.80834188  0.29521920     0.18400
C3281       C  0.43046191  0.81832950  0.27836960    -0.09500
C3282       C  0.44220966  0.81372799  0.26353980    -0.02500
H3283       H  0.44599901  0.78683895  0.31011904     0.04900
C3284       C  0.42050227  0.81380925  0.31177522     0.20400
H3285       H  0.44097382  0.82145886  0.25066164     0.10100
C3286       C  0.42437406  0.83094892  0.32008249    -0.15900
C3287       C  0.41504358  0.83655598  0.33610664     0.03100
C3288       C  0.40131425  0.82500840  0.34418360    -0.11200
C3289       C  0.39775098  0.80755646  0.33620967    -0.01200
C3290       C  0.40723692  0.80190866  0.32008868    -0.06400
H3291       H  0.43501006  0.83990352  0.31422253     0.06100
H3292       H  0.38736249  0.79848220  0.34229948     0.09500
Br3293     Br  0.41316960  0.83833953  0.27490866    -0.06100
Br3294     Br  0.47505233  0.77106687  0.28761757    -0.03000
Br3295     Br  0.42289137  0.85952514  0.34709279    -0.00200
Br3296     Br  0.40127163  0.77814331  0.30959721    -0.04600
C3297       C  0.54110010  0.79919858  0.26602189    -0.12000
C3298       C  0.54182597  0.78764451  0.28196021     0.03500
C3299       C  0.55318207  0.79245170  0.29705419    -0.12500
C3300       C  0.56424276  0.80852386  0.29660334     0.18400
C3301       C  0.56411218  0.81971021  0.28050015    -0.09500
C3302       C  0.55266781  0.81499465  0.26537177    -0.02500
H3303       H  0.55337387  0.78360320  0.30925513     0.04900
C3304       C  0.57502842  0.81378310  0.31345060     0.20400
H3305       H  0.55249391  0.82393695  0.25324572     0.10100
C3306       C  0.59407446  0.80955489  0.31480674    -0.15900
C3307       C  0.60423931  0.81380519  0.33100587     0.03100
C3308       C  0.59525096  0.82222714  0.34624451    -0.11200
C3309       C  0.57623108  0.82652011  0.34468394    -0.01200
C3310       C  0.56619948  0.82248510  0.32854405    -0.06400
H3311       H  0.60098546  0.80273942  0.30331805     0.06100
H3312       H  0.56910097  0.83328816  0.35608437     0.09500
Br3313     Br  0.57892693  0.84184755  0.27891345    -0.06100
Br3314     Br  0.52866078  0.76442983  0.28349255    -0.03000
Br3315     Br  0.62990526  0.80681342  0.33206413    -0.00200
Br3316     Br  0.54045018  0.82937916  0.32767872    -0.04600
C3317       C  0.49745566  0.14404509  0.21354143    -0.12000
C3318       C  0.48695896  0.13503413  0.22764826     0.03500
C3319       C  0.48796694  0.11562793  0.22988918    -0.12500
C3320       C  0.49921289  0.10466351  0.21834996     0.18400
C3321       C  0.50934942  0.11347944  0.20405593    -0.09500
C3322       C  0.50857697  0.13291970  0.20188496    -0.02500
H3323       H  0.48006031  0.10903691  0.24091129     0.04900
C3324       C  0.50002815  0.08411860  0.22156578     0.20400
H3325       H  0.51654535  0.13933355  0.19081383     0.10100
C3326       C  0.48444275  0.07308567  0.21743644    -0.15900
C3327       C  0.48397682  0.05405712  0.22197856     0.03100
C3328       C  0.49927331  0.04561867  0.23096886    -0.11200
C3329       C  0.51520953  0.05649971  0.23428091    -0.01200
C3330       C  0.51563120  0.07554908  0.22980432    -0.06400
H3331       H  0.47242017  0.07939909  0.21094361     0.06100
H3332       H  0.52698752  0.05046041  0.24145402     0.09500
Br3333     Br  0.52388747  0.09941145  0.18674145    -0.06100
Br3334     Br  0.47165850  0.14825362  0.24506902    -0.03000
Br3335     Br  0.46216440  0.04017412  0.21537524    -0.00200
Br3336     Br  0.53724740  0.08960987  0.23663982    -0.04600
C3337       C  0.54373095  0.19999005  0.26095715    -0.12000
C3338       C  0.55598860  0.21393974  0.26748554     0.03500
C3339       C  0.56749858  0.21046280  0.28278268    -0.12500
C3340       C  0.56717507  0.19323630  0.29189170     0.18400
C3341       C  0.55489443  0.17928851  0.28551165    -0.09500
C3342       C  0.54349041  0.18266053  0.27002813    -0.02500
H3343       H  0.57692238  0.22123790  0.28751084     0.04900
C3344       C  0.57970188  0.19019034  0.30803271     0.20400
H3345       H  0.53400753  0.17189547  0.26540435     0.10100
C3346       C  0.57694875  0.20029716  0.32449071    -0.15900
C3347       C  0.58774733  0.19683840  0.34039918     0.03100
C3348       C  0.60139927  0.18265597  0.34007281    -0.11200
C3349       C  0.60502470  0.17371506  0.32304208    -0.01200
C3350       C  0.59452937  0.17751629  0.30714013    -0.06400
H3351       H  0.56598929  0.21059232  0.32511296     0.06100
H3352       H  0.61579501  0.16323883  0.32215933     0.09500
Br3353     Br  0.55250511  0.15580296  0.29807976    -0.06100
Br3354     Br  0.55847645  0.23774744  0.25556700    -0.03000
Br3355     Br  0.58227318  0.21134842  0.36211621    -0.00200
Br3356     Br  0.60109679  0.16512161  0.28447261    -0.04600
C3357       C  0.45763409  0.20029611  0.26300637    -0.12000
C3358       C  0.43910880  0.20658568  0.26440582     0.03500
C3359       C  0.42865289  0.20260834  0.28040957    -0.12500
C3360       C  0.43629712  0.19233001  0.29515601     0.18400
C3361       C  0.45458734  0.18552074  0.29347236    -0.09500
C3362       C  0.46515324  0.18977821  0.27765549    -0.02500
H3363       H  0.41458999  0.20785111  0.28150992     0.04900
C3364       C  0.42500076  0.18891506  0.31214858     0.20400
H3365       H  0.47927462  0.18465046  0.27668857     0.10100
C3366       C  0.40973573  0.17680229  0.31130415    -0.15900
C3367       C  0.39912459  0.17269824  0.32718942     0.03100
C3368       C  0.40358110  0.18104738  0.34449022    -0.11200
C3369       C  0.41864106  0.19362698  0.34503275    -0.01200
C3370       C  0.42924358  0.19758147  0.32915956    -0.06400
H3371       H  0.40635197  0.17009002  0.29825830     0.06100
H3372       H  0.42247338  0.20024194  0.35799680     0.09500
Br3373     Br  0.46552911  0.16985110  0.31211885    -0.06100
Br3374     Br  0.42786305  0.22179611  0.24554819    -0.03000
Br3375     Br  0.37970443  0.15460497  0.32415956    -0.00200
Br3376     Br  0.44940334  0.21497085  0.33141382    -0.04600
C3377       C  0.45468702  0.25382492  0.20209613    -0.12000
C3378       C  0.43845383  0.25127996  0.19128883     0.03500
C3379       C  0.42672071  0.26644009  0.18752774    -0.12500
C3380       C  0.43086178  0.28437036  0.19412084     0.18400
C3381       C  0.44706186  0.28693241  0.20481985    -0.09500
C3382       C  0.45864085  0.27178046  0.20882457    -0.02500
H3383       H  0.41425151  0.26422940  0.17939451     0.04900
C3384       C  0.41850091  0.30030922  0.18926921     0.20400
H3385       H  0.47100124  0.27413811  0.21708450     0.10100
C3386       C  0.40904570  0.31008000  0.20333074    -0.15900
C3387       C  0.39824101  0.32586162  0.19917710     0.03100
C3388       C  0.39660972  0.33204976  0.18060835    -0.11200
C3389       C  0.40552052  0.32175247  0.16655677    -0.01200
C3390       C  0.41638563  0.30618064  0.17071060    -0.06400
H3391       H  0.41024836  0.30551713  0.21762617     0.06100
H3392       H  0.40466077  0.32624628  0.15221344     0.09500
Br3393     Br  0.45448666  0.31103043  0.21358443    -0.06100
Br3394     Br  0.43086822  0.22738759  0.18212927    -0.03000
Br3395     Br  0.38554717  0.33790629  0.21925331    -0.00200
Br3396     Br  0.42902369  0.29418780  0.15054609    -0.04600
C3397       C  0.54206917  0.25547782  0.20413862    -0.12000
C3398       C  0.53582672  0.27319892  0.19820753     0.03500
C3399       C  0.54865138  0.28761378  0.19521043    -0.12500
C3400       C  0.56776123  0.28487583  0.19793294     0.18400
C3401       C  0.57407850  0.26720317  0.20348135    -0.09500
C3402       C  0.56133233  0.25269118  0.20631461    -0.02500
H3403       H  0.54366674  0.30113886  0.19082559     0.04900
C3404       C  0.58059167  0.30095736  0.19569158     0.20400
H3405       H  0.56651986  0.23932567  0.21092267     0.10100
C3406       C  0.57998970  0.31537549  0.20878276    -0.15900
C3407       C  0.59033826  0.33172272  0.20624354     0.03100
C3408       C  0.60152012  0.33397725  0.19024064    -0.11200
C3409       C  0.60287399  0.31907847  0.17765407    -0.01200
C3410       C  0.59247411  0.30273501  0.18021070    -0.06400
H3411       H  0.57110481  0.31405055  0.22087157     0.06100
H3412       H  0.61116207  0.32056372  0.16517279     0.09500
Br3413     Br  0.59984221  0.26254412  0.20847235    -0.06100
Br3414     Br  0.51015169  0.27869438  0.19335224    -0.03000
Br3415     Br  0.58873280  0.35040940  0.22518997    -0.00200
Br3416     Br  0.59391088  0.28382727  0.16150474    -0.04600
C3417       C  0.49742059  0.22349849  0.05385203    -0.12000
C3418       C  0.48133613  0.22187649  0.06525205     0.03500
C3419       C  0.48293660  0.21630284  0.08391078    -0.12500
C3420       C  0.50024804  0.21222934  0.09181680     0.18400
C3421       C  0.51611583  0.21265346  0.08032503    -0.09500
C3422       C  0.51463089  0.21821837  0.06161788    -0.02500
H3423       H  0.47059047  0.21576071  0.09252919     0.04900
C3424       C  0.50145863  0.20881927  0.11227505     0.20400
H3425       H  0.52719500  0.21919560  0.05337510     0.10100
C3426       C  0.49446804  0.19221904  0.11996711    -0.15900
C3427       C  0.49449856  0.18919885  0.13932098     0.03100
C3428       C  0.50150608  0.20299715  0.15141664    -0.11200
C3429       C  0.50870269  0.21946662  0.14362947    -0.01200
C3430       C  0.50854457  0.22252427  0.12436205    -0.06400
H3431       H  0.48897504  0.18155616  0.11086501     0.06100
H3432       H  0.51402298  0.23029952  0.15264387     0.09500
Br3433     Br  0.54018481  0.20617621  0.08976785    -0.06100
Br3434     Br  0.45659986  0.22724388  0.05673252    -0.03000
Br3435     Br  0.48581306  0.16561557  0.14840698    -0.00200
Br3436     Br  0.51720831  0.24613219  0.11527952    -0.04600
C3437       C  0.40475002  0.34843028  0.10838493    -0.12000
C3438       C  0.39686465  0.34395864  0.09101886     0.03500
C3439       C  0.40575620  0.33108385  0.07947553    -0.12500
C3440       C  0.42242443  0.32265343  0.08503929     0.18400
C3441       C  0.42995052  0.32669445  0.10258725    -0.09500
C3442       C  0.42108393  0.33945730  0.11413352    -0.02500
H3443       H  0.40026291  0.32845028  0.06571406     0.04900
C3444       C  0.43375141  0.31285022  0.07118475     0.20400
H3445       H  0.42729511  0.34284027  0.12742362     0.10100
C3446       C  0.44586608  0.32354945  0.06034035    -0.15900
C3447       C  0.45819845  0.31513871  0.04806706     0.03100
C3448       C  0.45824102  0.29559993  0.04620708    -0.11200
C3449       C  0.44576664  0.28486447  0.05676050    -0.01200
C3450       C  0.43374437  0.29336129  0.06948286    -0.06400
H3451       H  0.44597454  0.33856622  0.06174228     0.06100
H3452       H  0.44575257  0.26985401  0.05548564     0.09500
Br3453     Br  0.45324260  0.31638999  0.11051234    -0.06100
Br3454     Br  0.37548025  0.35671700  0.08144219    -0.03000
Br3455     Br  0.47420098  0.33123130  0.03388046    -0.00200
Br3456     Br  0.41815113  0.27796402  0.08471081    -0.04600
C3457       C  0.59394480  0.34582313  0.11357544    -0.12000
C3458       C  0.59297928  0.34867862  0.09417336     0.03500
C3459       C  0.58334375  0.33598411  0.08309427    -0.12500
C3460       C  0.57452529  0.32048885  0.09100859     0.18400
C3461       C  0.57586606  0.31729839  0.11021444    -0.09500
C3462       C  0.58568954  0.32983728  0.12134359    -0.02500
H3463       H  0.58232567  0.33843225  0.06824777     0.04900
C3464       C  0.56264239  0.30886463  0.07911896     0.20400
H3465       H  0.58622282  0.32747396  0.13622878     0.10100
C3466       C  0.56981181  0.29266604  0.07100338    -0.15900
C3467       C  0.55940824  0.28276806  0.05783622     0.03100
C3468       C  0.54165017  0.28924614  0.05269036    -0.11200
C3469       C  0.53428472  0.30500045  0.06149623    -0.01200
C3470       C  0.54459148  0.31475972  0.07465084    -0.06400
H3471       H  0.58376446  0.28815673  0.07438421     0.06100
H3472       H  0.52062142  0.31006871  0.05770486     0.09500
Br3473     Br  0.56346128  0.29667630  0.12178977    -0.06100
Br3474     Br  0.60482877  0.36928578  0.08187919    -0.03000
Br3475     Br  0.57080620  0.26180836  0.04598796    -0.00200
Br3476     Br  0.53378994  0.33653086  0.08563108    -0.04600
C3477       C  0.59415560  0.35094984  0.90726157    -0.12000
C3478       C  0.57551392  0.34520988  0.90480953     0.03500
C3479       C  0.56761565  0.33245203  0.91707251    -0.12500
C3480       C  0.57761005  0.32569967  0.93234288     0.18400
C3481       C  0.59651377  0.33046152  0.93425600    -0.09500
C3482       C  0.60470245  0.34290526  0.92162045    -0.02500
H3483       H  0.55319892  0.32845972  0.91523549     0.04900
C3484       C  0.56724280  0.31552618  0.94691737     0.20400
H3485       H  0.61909039  0.34692627  0.92352151     0.10100
C3486       C  0.57119494  0.29679156  0.95088017    -0.15900
C3487       C  0.56037415  0.28674546  0.96371205     0.03100
C3488       C  0.54518239  0.29550237  0.97251744    -0.11200
C3489       C  0.54161874  0.31431964  0.96868256    -0.01200
C3490       C  0.55242302  0.32430514  0.95615745    -0.06400
H3491       H  0.58243887  0.28987535  0.94367413     0.06100
H3492       H  0.53027499  0.32145476  0.97552970     0.09500
Br3493     Br  0.61128359  0.32139691  0.95451849    -0.06100
Br3494     Br  0.55995234  0.35385890  0.88490355    -0.03000
Br3495     Br  0.56632746  0.26104063  0.96768751    -0.00200
Br3496     Br  0.54621990  0.35005189  0.95238974    -0.04600
C3497       C  0.46048587  0.29578862  0.96763128    -0.12000
C3498       C  0.45318256  0.28707564  0.95154109     0.03500
C3499       C  0.44252502  0.29745384  0.93881627    -0.12500
C3500       C  0.43926372  0.31651811  0.94156358     0.18400
C3501       C  0.44696187  0.32527233  0.95721534    -0.09500
C3502       C  0.45721748  0.31497405  0.97004001    -0.02500
H3503       H  0.43688688  0.29066583  0.92662155     0.04900
C3504       C  0.42809874  0.32741493  0.92804939     0.20400
H3505       H  0.46276697  0.32224359  0.98199211     0.10100
C3506       C  0.41091233  0.33478903  0.93365900    -0.15900
C3507       C  0.40121975  0.34735272  0.92232891     0.03100
C3508       C  0.40875695  0.35276198  0.90505521    -0.11200
C3509       C  0.42563118  0.34490242  0.89919520    -0.01200
C3510       C  0.43521929  0.33221976  0.91044248    -0.06400
H3511       H  0.40538869  0.33130593  0.94723680     0.06100
H3512       H  0.43151089  0.34885063  0.88588894     0.09500
Br3513     Br  0.44461050  0.35156161  0.96133383    -0.06100
Br3514     Br  0.45773730  0.26147446  0.94552621    -0.03000
Br3515     Br  0.37875089  0.35805161  0.93187774    -0.00200
Br3516     Br  0.45848979  0.32270491  0.90161474    -0.04600
C3517       C  0.49771297  0.20914580  0.86246334    -0.12000
C3518       C  0.48535914  0.22135311  0.87188316     0.03500
C3519       C  0.48663557  0.22368343  0.89121335    -0.12500
C3520       C  0.49992494  0.21412009  0.90174619     0.18400
C3521       C  0.51191808  0.20163837  0.89261157    -0.09500
C3522       C  0.51086663  0.19937319  0.87322286    -0.02500
H3523       H  0.47734850  0.23332914  0.89807909     0.04900
C3524       C  0.50137777  0.21797293  0.92207909     0.20400
H3525       H  0.52032252  0.18976070  0.86657655     0.10100
C3526       C  0.48707079  0.21237040  0.93417975    -0.15900
C3527       C  0.48744485  0.21693879  0.95321648     0.03100
C3528       C  0.50243564  0.22744245  0.96056996    -0.11200
C3529       C  0.51685345  0.23268192  0.94829476    -0.01200
C3530       C  0.51632988  0.22826927  0.92935754    -0.06400
H3531       H  0.47540212  0.20457326  0.92871695     0.06100
H3532       H  0.52837073  0.24102841  0.95321614     0.09500
Br3533     Br  0.52962541  0.18701864  0.90617130    -0.06100
Br3534     Br  0.46670891  0.23601544  0.85959845    -0.03000
Br3535     Br  0.46694867  0.20841696  0.96806981    -0.00200
Br3536     Br  0.53572130  0.23797645  0.91374383    -0.04600
C3537       C  0.39727693  0.17785932  0.67494167    -0.12000
C3538       C  0.40439298  0.19595866  0.67800130     0.03500
C3539       C  0.41546186  0.19951685  0.69367355    -0.12500
C3540       C  0.41987196  0.18535639  0.70641481     0.18400
C3541       C  0.41249725  0.16746127  0.70365374    -0.09500
C3542       C  0.40126677  0.16392440  0.68822280    -0.02500
H3543       H  0.42087632  0.21342302  0.69584035     0.04900
C3544       C  0.43218447  0.18951643  0.72244633     0.20400
H3545       H  0.39630347  0.14982622  0.68626888     0.10100
C3546       C  0.42507315  0.18839313  0.74060882    -0.15900
C3547       C  0.43622026  0.19267937  0.75599537     0.03100
C3548       C  0.45473998  0.19849741  0.75330966    -0.11200
C3549       C  0.46186869  0.19956549  0.73518080    -0.01200
C3550       C  0.45085646  0.19490558  0.71983440    -0.06400
H3551       H  0.41071862  0.18437303  0.74279694     0.06100
H3552       H  0.47615534  0.20383654  0.73297179     0.09500
Br3553     Br  0.41841974  0.14696419  0.71976434    -0.06100
Br3554     Br  0.39965459  0.21651148  0.66161504    -0.03000
Br3555     Br  0.42517351  0.19157701  0.78025587    -0.00200
Br3556     Br  0.46217667  0.19538478  0.69567836    -0.04600
C3557       C  0.53948378  0.20285636  0.74974478    -0.12000
C3558       C  0.55869689  0.20702302  0.74960377     0.03500
C3559       C  0.56925503  0.20365063  0.73360387    -0.12500
C3560       C  0.56109316  0.19618639  0.71756155     0.18400
C3561       C  0.54202996  0.19162173  0.71779825    -0.09500
C3562       C  0.53139439  0.19518217  0.73369309    -0.02500
H3563       H  0.58392227  0.20709800  0.73358471     0.04900
C3564       C  0.57290944  0.19267143  0.70103824     0.20400
H3565       H  0.51672923  0.19171830  0.73357584     0.10100
C3566       C  0.58693956  0.17922666  0.70219719    -0.15900
C3567       C  0.59796742  0.17483983  0.68676829     0.03100
C3568       C  0.59491798  0.18394291  0.66954237    -0.11200
C3569       C  0.58135326  0.19805153  0.66875018    -0.10800
C3570       C  0.57058691  0.20259274  0.68430882    -0.06400
H3571       H  0.58904342  0.17176800  0.71513399     0.06100
H3572       H  0.57887872  0.20545008  0.65585305     0.09500
Br3573     Br  0.53002611  0.17977612  0.69711189    -0.06100
Br3574     Br  0.57119425  0.21849310  0.77021561    -0.03000
Br3575     Br  0.61601131  0.15550541  0.69027639    -0.00200
Br3576     Br  0.55315930  0.22267862  0.68213102    -0.04600
C3577       C  0.60130913  0.33391962  0.83310941    -0.12000
C3578       C  0.59553504  0.31983430  0.84576445     0.03500
C3579       C  0.58489866  0.30482845  0.83956823    -0.12500
C3580       C  0.58059167  0.30251492  0.82075444     0.18400
C3581       C  0.58710232  0.31592947  0.80790599    -0.09500
C3582       C  0.59705691  0.33155314  0.81416117    -0.02500
H3583       H  0.57974725  0.29487669  0.84967980     0.04900
C3584       C  0.56834573  0.28664771  0.81532541     0.20400
H3585       H  0.60148251  0.34189809  0.80411372     0.10100
C3586       C  0.55161057  0.29030609  0.80599245    -0.15900
C3587       C  0.53900907  0.27603025  0.80185500     0.03100
C3588       C  0.54264501  0.25760340  0.80774634    -0.11200
C3589       C  0.55929332  0.25395158  0.81724787    -0.01200
C3590       C  0.57219009  0.26814182  0.82080958    -0.06400
H3591       H  0.54814739  0.30446028  0.80214077     0.06100
H3592       H  0.56253782  0.23986553  0.82151672     0.09500
Br3593     Br  0.58331126  0.31335666  0.78163641    -0.06100
Br3594     Br  0.60097747  0.31966293  0.87189162    -0.03000
Br3595     Br  0.51676685  0.28295049  0.78883087    -0.00200
Br3596     Br  0.59515732  0.26119864  0.83251076    -0.04600
C3597       C  0.45652533  0.25867567  0.80836435    -0.12000
C3598       C  0.46282332  0.27340297  0.81968428     0.03500
C3599       C  0.45097586  0.28829173  0.82367922    -0.12500
C3600       C  0.43294277  0.28894985  0.81631885     0.18400
C3601       C  0.42667194  0.27434060  0.80493645    -0.09500
C3602       C  0.43836384  0.25923713  0.80122968    -0.02500
H3603       H  0.45584104  0.29943403  0.83255459     0.04900
C3604       C  0.42088859  0.30494319  0.82089479     0.20400
H3605       H  0.43341565  0.24811269  0.79237876     0.10100
C3606       C  0.41955192  0.31990411  0.80845517    -0.15900
C3607       C  0.40945821  0.33594754  0.81302638     0.03100
C3608       C  0.40015701  0.33708650  0.83039115    -0.11200
C3609       C  0.40118301  0.32162135  0.84250154    -0.01200
C3610       C  0.41153361  0.30583348  0.83798208    -0.06400
H3611       H  0.42686878  0.31929494  0.79529991     0.06100
H3612       H  0.39441848  0.32194981  0.85595116     0.09500
Br3613     Br  0.40232142  0.27455886  0.79412037    -0.06100
Br3614     Br  0.48712155  0.27352871  0.83071833    -0.03000
Br3615     Br  0.40998471  0.35578753  0.79511112    -0.00200
Br3616     Br  0.41304991  0.28601756  0.85585528    -0.04600
C3617       C  0.50049806  0.77463750  0.05589895    -0.12000
C3618       C  0.51666801  0.77728632  0.06694901     0.03500
C3619       C  0.51511891  0.78155580  0.08597240    -0.12500
C3620       C  0.49774021  0.78368704  0.09457197     0.18400
C3621       C  0.48168623  0.78260044  0.08332049    -0.09500
C3622       C  0.48312766  0.77789755  0.06436156    -0.02500
H3623       H  0.52764404  0.78298570  0.09420686     0.04900
C3624       C  0.49681841  0.78714150  0.11516494     0.20400
H3625       H  0.47048934  0.77631937  0.05634148     0.10100
C3626       C  0.50494907  0.80327675  0.12268743    -0.15900
C3627       C  0.50479503  0.80674870  0.14197584     0.03100
C3628       C  0.49640353  0.79389804  0.15435961    -0.11200
C3629       C  0.48831706  0.77775987  0.14676856    -0.01200
C3630       C  0.48867186  0.77420764  0.12756087    -0.06400
H3631       H  0.51136657  0.81333357  0.11345764     0.06100
H3632       H  0.48208232  0.76750102  0.15592040     0.09500
Br3633     Br  0.45748576  0.78801903  0.09308327    -0.06100
Br3634     Br  0.54146735  0.77579598  0.05711953    -0.03000
Br3635     Br  0.51538049  0.82977134  0.15035153    -0.00200
Br3636     Br  0.47888223  0.75082388  0.11923344    -0.04600
C3637       C  0.59233620  0.65247757  0.11291256    -0.12000
C3638       C  0.58416997  0.66944189  0.11859055     0.03500
C3639       C  0.57539123  0.68084007  0.10552832    -0.12500
C3640       C  0.57444347  0.67566589  0.08682326     0.18400
C3641       C  0.58293714  0.65909743  0.08097034    -0.09500
C3642       C  0.59177245  0.64766033  0.09396952    -0.02500
H3643       H  0.56864231  0.69350157  0.11008711     0.04900
C3644       C  0.56294138  0.68673783  0.07401351     0.20400
H3645       H  0.59801891  0.63481129  0.08924700     0.10100
C3646       C  0.57137916  0.69870470  0.06114165    -0.15900
C3647       C  0.56069337  0.70862152  0.04821418     0.03100
C3648       C  0.54108817  0.70638338  0.04800985    -0.11200
C3649       C  0.53280934  0.69481115  0.06149817    -0.01200
C3650       C  0.54351207  0.68507401  0.07436490    -0.06400
H3651       H  0.58637331  0.70010491  0.06099309     0.06100
H3652       H  0.51787214  0.69295247  0.06187663     0.09500
Br3653     Br  0.58193888  0.65110728  0.05555133    -0.06100
Br3654     Br  0.58291001  0.67731799  0.14399093    -0.03000
Br3655     Br  0.57412718  0.72422158  0.03110747    -0.00200
Br3656     Br  0.53098680  0.66896438  0.09164593    -0.04600
C3657       C  0.45767326  0.70667006  0.04863587    -0.12000
C3658       C  0.46265246  0.70741056  0.06754551     0.03500
C3659       C  0.45270731  0.69681439  0.08054555    -0.12500
C3660       C  0.43787701  0.68549670  0.07483119     0.18400
C3661       C  0.43267105  0.68512608  0.05600572    -0.09500
C3662       C  0.44264310  0.69558686  0.04305325    -0.02500
H3663       H  0.45685280  0.69698851  0.09504037     0.04900
C3664       C  0.42840273  0.67345080  0.08840132     0.20400
H3665       H  0.43886297  0.69481976  0.02847314     0.10100
C3666       C  0.41257547  0.68004533  0.09755973    -0.15900
C3667       C  0.40241486  0.66844350  0.10945067     0.03100
C3668       C  0.40821050  0.64987708  0.11232834    -0.11200
C3669       C  0.42417598  0.64341220  0.10312978    -0.01200
C3670       C  0.43426031  0.65503446  0.09126789    -0.06400
H3671       H  0.40787587  0.69413984  0.09508608     0.06100
H3672       H  0.42892701  0.62927574  0.10525378     0.09500
Br3673     Br  0.41244480  0.67002522  0.04733438    -0.06100
Br3674     Br  0.48388839  0.72126515  0.07586024    -0.03000
Br3675     Br  0.38011100  0.67845766  0.12010242    -0.00200
Br3676     Br  0.45575754  0.64512599  0.07900689    -0.04600
C3677       C  0.45813410  0.70858236  0.96702382    -0.12000
C3678       C  0.46538942  0.70308716  0.94961294     0.03500
C3679       C  0.45375088  0.69469197  0.93648779    -0.12500
C3680       C  0.43480702  0.69186419  0.94018587     0.18400
C3681       C  0.42738153  0.69820333  0.95717284    -0.09500
C3682       C  0.43900612  0.70651410  0.97035687    -0.02500
H3683       H  0.45963598  0.68988082  0.92349799     0.04900
C3684       C  0.42357595  0.68058382  0.92707314     0.20400
H3685       H  0.43314695  0.71076957  0.98354872     0.10100
C3686       C  0.41613184  0.66369035  0.93337479    -0.15900
C3687       C  0.40633554  0.65193638  0.92145285     0.03100
C3688       C  0.40437476  0.65665789  0.90243378    -0.11200
C3689       C  0.41147721  0.67382959  0.89620192    -0.01200
C3690       C  0.42096571  0.68577588  0.90834227    -0.06400
H3691       H  0.41803116  0.65955522  0.94774300     0.06100
H3692       H  0.40998475  0.67783909  0.88175159     0.09500
Br3693     Br  0.40149000  0.69567608  0.96314865    -0.06100
Br3694     Br  0.49091232  0.70698266  0.94267205    -0.03000
Br3695     Br  0.39534105  0.63018116  0.93255455    -0.00200
Br3696     Br  0.42978554  0.70912962  0.89879528    -0.04600
C3697       C  0.59105687  0.65157158  0.90495676    -0.12000
C3698       C  0.57216074  0.65681472  0.90338636     0.03500
C3699       C  0.56478936  0.67007378  0.91543229    -0.12500
C3700       C  0.57587205  0.67865526  0.92892843     0.18400
C3701       C  0.59485100  0.67396153  0.93013057    -0.09500
C3702       C  0.60229289  0.66058023  0.91815365    -0.02500
H3703       H  0.55014695  0.67344266  0.91451017     0.04900
C3704       C  0.56672049  0.69064495  0.94288366     0.20400
H3705       H  0.61683675  0.65694733  0.91943613     0.10100
C3706       C  0.56663623  0.68469053  0.96141599    -0.15900
C3707       C  0.55603871  0.69383291  0.97476146     0.03100
C3708       C  0.54487043  0.70916295  0.96959543    -0.11200
C3709       C  0.54563348  0.71575094  0.95122403    -0.01200
C3710       C  0.55640121  0.70656121  0.93784934    -0.06400
H3711       H  0.57442099  0.67243672  0.96543263     0.06100
H3712       H  0.53724881  0.72755226  0.94708234     0.09500
Br3713     Br  0.61115177  0.68540955  0.94787621    -0.06100
Br3714     Br  0.55559631  0.64714612  0.88477185    -0.03000
Br3715     Br  0.55768893  0.68460792  0.99982101    -0.00200
Br3716     Br  0.55636240  0.71604755  0.91288947    -0.04600
C3717       C  0.49705508  0.77429202  0.96154693    -0.12000
C3718       C  0.50806661  0.78965759  0.95604349     0.03500
C3719       C  0.50887507  0.79500493  0.93716748    -0.12500
C3720       C  0.49884576  0.78530594  0.92345845     0.18400
C3721       C  0.48786949  0.77000417  0.92895702    -0.09500
C3722       C  0.48693621  0.76478422  0.94771454    -0.02500
H3723       H  0.51735264  0.80683097  0.93316509     0.04900
C3724       C  0.50021435  0.79084773  0.90344657     0.20400
H3725       H  0.47866649  0.75269905  0.95139488     0.10100
C3726       C  0.51640300  0.78676566  0.89333952    -0.15900
C3727       C  0.51742464  0.79001718  0.87405579     0.03100
C3728       C  0.50190910  0.79728391  0.86437617    -0.11200
C3729       C  0.48595231  0.80191508  0.87468140    -0.01200
C3730       C  0.48512797  0.79904300  0.89399368    -0.06400
H3731       H  0.52813311  0.78049355  0.90040064     0.06100
H3732       H  0.47401927  0.80783923  0.86766441     0.09500
Br3733     Br  0.47465148  0.75507773  0.91120002    -0.06100
Br3734     Br  0.52159749  0.80430055  0.97371153    -0.03000
Br3735     Br  0.53988131  0.78290003  0.86158835    -0.00200
Br3736     Br  0.46316849  0.80672142  0.90698544    -0.04600
C3737       C  0.40058924  0.66751118  0.82323699    -0.12000
C3738       C  0.39649380  0.68505221  0.83126246     0.03500
C3739       C  0.40743773  0.70064658  0.82690639    -0.12500
C3740       C  0.42255249  0.69933183  0.81468630     0.18400
C3741       C  0.42624204  0.68216451  0.80610230    -0.09500
C3742       C  0.41534482  0.66653838  0.81035896    -0.02500
H3743       H  0.40454720  0.71379587  0.83364623     0.04900
C3744       C  0.43502591  0.71565687  0.81212552     0.20400
H3745       H  0.41881666  0.65339861  0.80389710     0.10100
C3746       C  0.45296473  0.71522027  0.81980710    -0.15900
C3747       C  0.46505147  0.73043987  0.81799891     0.03100
C3748       C  0.45920908  0.74658923  0.80847428    -0.11200
C3749       C  0.44113521  0.74713820  0.80109133    -0.01200
C3750       C  0.42913092  0.73182745  0.80274420    -0.06400
H3751       H  0.45754071  0.70299619  0.82733489     0.06100
H3752       H  0.43653393  0.75930230  0.79348399     0.09500
Br3753     Br  0.44617454  0.67937437  0.78860128    -0.06100
Br3754     Br  0.37730401  0.68878321  0.84942518    -0.03000
Br3755     Br  0.48898975  0.72879038  0.82964315    -0.00200
Br3756     Br  0.40517872  0.73326171  0.79115450    -0.04600
C3757       C  0.54590985  0.74777452  0.80801556    -0.12000
C3758       C  0.56511792  0.74998871  0.81117729     0.03500
C3759       C  0.57636429  0.73429645  0.81411420    -0.12500
C3760       C  0.56876555  0.71625451  0.81391356     0.18400
C3761       C  0.54952962  0.71414713  0.81076229    -0.09500
C3762       C  0.53841036  0.72977410  0.80750108    -0.02500
H3763       H  0.59108302  0.73616993  0.81668162     0.04900
C3764       C  0.58063745  0.70008449  0.81901680     0.20400
H3765       H  0.52369962  0.72788106  0.80492916     0.10100
C3766       C  0.58693615  0.69873289  0.83732772    -0.15900
C3767       C  0.59685999  0.68321244  0.84354248     0.03100
C3768       C  0.60073869  0.66821216  0.83120547    -0.11200
C3769       C  0.59504959  0.67005320  0.81253718    -0.01200
C3770       C  0.58523809  0.68583556  0.80639451    -0.06400
H3771       H  0.58363908  0.70972392  0.84708199     0.06100
H3772       H  0.59796053  0.65905523  0.80269478     0.09500
Br3773     Br  0.53742298  0.69042589  0.81203353    -0.06100
Br3774     Br  0.57671378  0.77403061  0.81059623    -0.03000
Br3775     Br  0.60363882  0.68387617  0.86940622    -0.00200
Br3776     Br  0.57860135  0.68749495  0.78063149    -0.04600
C3777       C  0.54302646  0.80264484  0.75150741    -0.12000
C3778       C  0.53694631  0.81163335  0.73515876     0.03500
C3779       C  0.54924088  0.81400635  0.72024728    -0.12500
C3780       C  0.56757619  0.80740194  0.72120243     0.18400
C3781       C  0.57372459  0.79861812  0.73757171    -0.09500
C3782       C  0.56151769  0.79640581  0.75256878    -0.02500
H3783       H  0.54449868  0.82109489  0.70782202     0.04900
C3784       C  0.58003555  0.81023120  0.70504431     0.20400
H3785       H  0.56636959  0.78931134  0.76494742     0.10100
C3786       C  0.59489865  0.82279642  0.70639905    -0.15900
C3787       C  0.60541092  0.82771467  0.69072289     0.03100
C3788       C  0.60089076  0.82008591  0.67313397    -0.11200
C3789       C  0.58673043  0.80656640  0.67220597    -0.01200
C3790       C  0.57638531  0.80163602  0.68789678    -0.06400
H3791       H  0.59785265  0.82939876  0.71960679     0.06100
H3792       H  0.58315253  0.80023979  0.65902168     0.09500
Br3793     Br  0.59834097  0.78863136  0.73974201    -0.06100
Br3794     Br  0.51239950  0.82179518  0.73274647    -0.03000
Br3795     Br  0.62458938  0.84595919  0.69440436    -0.00200
Br3796     Br  0.55713714  0.78333270  0.68513655    -0.04600
C3797       C  0.40056041  0.82030851  0.67434646    -0.12000
C3798       C  0.41720541  0.80969258  0.67541236     0.03500
C3799       C  0.42626786  0.80724423  0.69248561    -0.12500
C3800       C  0.41932673  0.81496860  0.70893466     0.18400
C3801       C  0.40262435  0.82513886  0.70815553    -0.09500
C3802       C  0.39341826  0.82770567  0.69105602    -0.02500
H3803       H  0.43906333  0.79931991  0.69291804     0.04900
C3804       C  0.43000906  0.81208196  0.72651645     0.20400
H3805       H  0.38084905  0.83596858  0.69081609     0.10100
C3806       C  0.43985217  0.82693477  0.73459941    -0.15900
C3807       C  0.45211929  0.82399005  0.74959045     0.03100
C3808       C  0.45495569  0.80579648  0.75659159    -0.11200
C3809       C  0.44454588  0.79113572  0.74884653    -0.01200
C3810       C  0.43213504  0.79415429  0.73414374    -0.06400
H3811       H  0.43846418  0.84078828  0.72881088     0.06100
H3812       H  0.44610033  0.77713546  0.75423325     0.09500
Br3813     Br  0.39180479  0.83557224  0.73013240    -0.06100
Br3814     Br  0.42893955  0.79803552  0.65441931    -0.03000
Br3815     Br  0.46555541  0.84510937  0.75890356    -0.00200
Br3816     Br  0.41823080  0.77330966  0.72495303    -0.04600
C3817       C  0.49947721  0.14782037  0.80090494    -0.12000
C3818       C  0.50850029  0.13933915  0.78558506     0.03500
C3819       C  0.50752828  0.11999825  0.78310474    -0.12500
C3820       C  0.49747022  0.10864424  0.79540340     0.18400
C3821       C  0.48827621  0.11700795  0.81052888    -0.09500
C3822       C  0.48925573  0.13637297  0.81312057    -0.02500
H3823       H  0.51447520  0.11376975  0.77129673     0.04900
C3824       C  0.49699520  0.08815143  0.79215107     0.20400
H3825       H  0.48217037  0.14246874  0.82490683     0.10100
C3826       C  0.51312474  0.07762282  0.79523922    -0.15900
C3827       C  0.51380072  0.05861982  0.79077635     0.03100
C3828       C  0.49805983  0.04965786  0.78313589    -0.11200
C3829       C  0.48170721  0.06009628  0.78069466    -0.01200
C3830       C  0.48115537  0.07917250  0.78487088    -0.06400
H3831       H  0.52540717  0.08433327  0.80082903     0.06100
H3832       H  0.46961025  0.05366639  0.77443132     0.09500
Br3833     Br  0.47465705  0.10243961  0.82827861    -0.06100
Br3834     Br  0.52131432  0.15330775  0.76668997    -0.03000
Br3835     Br  0.53656722  0.04558877  0.79555738    -0.00200
Br3836     Br  0.45900653  0.09272332  0.77883808    -0.04600
C3837       C  0.45270308  0.04107679  0.71664205    -0.12000
C3838       C  0.43784945  0.05037682  0.72553882     0.03500
C3839       C  0.42714675  0.06331691  0.71553394    -0.12500
C3840       C  0.43102191  0.06715135  0.69678382     0.18400
C3841       C  0.44579271  0.05792800  0.68798796    -0.09500
C3842       C  0.45640912  0.04510712  0.69786085    -0.02500
H3843       H  0.41577064  0.07039754  0.72237202     0.04900
C3844       C  0.42015843  0.08116578  0.68640866     0.20400
H3845       H  0.46772342  0.03824076  0.69070407     0.10100
C3846       C  0.42879720  0.09802393  0.68175785    -0.15900
C3847       C  0.42067784  0.11020248  0.66900007     0.03100
C3848       C  0.40341846  0.10568377  0.66082642    -0.11200
C3849       C  0.39411873  0.08944520  0.66652165    -0.01200
C3850       C  0.40246125  0.07708750  0.67909395    -0.06400
H3851       H  0.44235240  0.10130462  0.68744705     0.06100
H3852       H  0.38081915  0.08586957  0.66043748     0.09500
Br3853     Br  0.45184418  0.06209547  0.66229581    -0.06100
Br3854     Br  0.43086446  0.04546697  0.75082617    -0.03000
Br3855     Br  0.43389640  0.13275724  0.66326959    -0.00200
Br3856     Br  0.38995043  0.05416685  0.68468355    -0.04600
C3857       C  0.53671846  0.04172963  0.71293792    -0.12000
C3858       C  0.55624301  0.04293246  0.71561277     0.03500
C3859       C  0.56663506  0.05627905  0.70584456    -0.12500
C3860       C  0.55808394  0.06859027  0.69341542     0.18400
C3861       C  0.53873732  0.06777133  0.69099082    -0.09500
C3862       C  0.52825752  0.05454979  0.70072351    -0.02500
H3863       H  0.58158312  0.05677573  0.70761180     0.04900
C3864       C  0.56967308  0.08107578  0.68184516     0.20400
H3865       H  0.51339135  0.05412249  0.69837930     0.10100
C3866       C  0.57703374  0.07420212  0.66521995    -0.15900
C3867       C  0.58717043  0.08569989  0.65319630     0.03100
C3868       C  0.59012561  0.10464556  0.65777818    -0.11200
C3869       C  0.58319840  0.11128037  0.67484059    -0.01200
C3870       C  0.57299538  0.09969688  0.68677889    -0.06400
H3871       H  0.57465721  0.05979996  0.66146318     0.06100
H3872       H  0.58517776  0.12570868  0.67867293     0.09500
Br3873     Br  0.52617326  0.08396800  0.67388683    -0.06100
Br3874     Br  0.57009302  0.02649032  0.73149655    -0.03000
Br3875     Br  0.59683448  0.07423093  0.63110775    -0.00200
Br3876     Br  0.56345721  0.10993721  0.70944219    -0.04600
C3877       C  0.49785052  0.95606588  0.78503716    -0.12000
C3878       C  0.51410275  0.94934042  0.79402161     0.03500
C3879       C  0.51558465  0.93036151  0.79886921    -0.12500
C3880       C  0.50121573  0.91769394  0.79494168     0.18400
C3881       C  0.48493521  0.92438675  0.78650111    -0.09500
C3882       C  0.48331425  0.94323589  0.78180061    -0.02500
H3883       H  0.52818789  0.92537692  0.80542053     0.04900
C3884       C  0.50348008  0.89741572  0.79891224     0.20400
H3885       H  0.47074390  0.94764114  0.77479727     0.10100
C3886       C  0.49473434  0.88944447  0.81447403    -0.15900
C3887       C  0.49508920  0.87011012  0.81758647     0.03100
C3888       C  0.50436711  0.85822199  0.80495418    -0.11200
C3889       C  0.51353728  0.86638130  0.78965204    -0.01200
C3890       C  0.51304120  0.88567930  0.78652396    -0.06400
H3891       H  0.48734010  0.89830868  0.82412118     0.06100
H3892       H  0.52065869  0.85764108  0.77969003     0.09500
Br3893     Br  0.46493569  0.90796074  0.77995668    -0.06100
Br3894     Br  0.53498376  0.96492820  0.79986165    -0.03000
Br3895     Br  0.48319669  0.86097578  0.83970062    -0.00200
Br3896     Br  0.52474978  0.89535596  0.76455947    -0.04600
C3897       C  0.58826045  0.89665604  0.66296619    -0.12000
C3898       C  0.57390405  0.88870005  0.67373118     0.03500
C3899       C  0.56339808  0.89995118  0.68561139    -0.12500
C3900       C  0.56711649  0.91905268  0.68696066     0.18400
C3901       C  0.58157390  0.92692408  0.67633584    -0.09500
C3902       C  0.59192900  0.91574534  0.66434178    -0.02500
H3903       H  0.55208861  0.89389052  0.69352735     0.04900
C3904       C  0.55517958  0.93099342  0.69852502     0.20400
H3905       H  0.60286549  0.92197137  0.65603248     0.10100
C3906       C  0.56179668  0.93747379  0.71567925    -0.15900
C3907       C  0.55215282  0.95122686  0.72550029     0.03100
C3908       C  0.53569497  0.95876154  0.71796048    -0.11200
C3909       C  0.52865567  0.95145836  0.70126345    -0.01200
C3910       C  0.53818899  0.93765085  0.69159926    -0.06400
H3911       H  0.57492101  0.93239707  0.72101856     0.06100
H3912       H  0.51586348  0.95686025  0.69543432     0.09500
Br3913     Br  0.58719916  0.95301520  0.67730803    -0.06100
Br3914     Br  0.56722808  0.86291032  0.67158501    -0.03000
Br3915     Br  0.56310201  0.96033656  0.74803496    -0.00200
Br3916     Br  0.52810714  0.92921213  0.66838658    -0.04600
C3917       C  0.45481087  0.95987819  0.71972369    -0.12000
C3918       C  0.46156686  0.94166195  0.71722680     0.03500
C3919       C  0.45105290  0.92879176  0.70716602    -0.12500
C3920       C  0.43394695  0.93390979  0.69933536     0.18400
C3921       C  0.42665373  0.95171172  0.70292406    -0.09500
C3922       C  0.43704027  0.96449177  0.71321709    -0.02500
H3923       H  0.45656302  0.91499132  0.70478121     0.04900
C3924       C  0.42465652  0.92108497  0.68630385     0.20400
H3925       H  0.43176827  0.97847594  0.71501555     0.10100
C3926       C  0.40752825  0.91309800  0.69111098    -0.15900
C3927       C  0.39824011  0.90130227  0.67875479     0.03100
C3928       C  0.40628725  0.89716358  0.66133527    -0.11200
C3929       C  0.42334965  0.90534127  0.65652045    -0.01200
C3930       C  0.43254274  0.91719801  0.66881913    -0.06400
H3931       H  0.40126557  0.91626335  0.70442435     0.06100
H3932       H  0.42968121  0.90233778  0.64319695     0.09500
Br3933     Br  0.40350849  0.95988039  0.69250398    -0.06100
Br3934     Br  0.48507746  0.93378288  0.72712660    -0.03000
Br3935     Br  0.37408904  0.89241364  0.68592364    -0.00200
Br3936     Br  0.45554576  0.92820785  0.66083002    -0.04600
loop_ 
_geom_bond_atom_site_label_1 
_geom_bond_atom_site_label_2 
_geom_bond_distance 
_geom_bond_site_symmetry_2 
_ccdc_geom_bond_type 
O1          Cr19   2.018       .  S
O1            C9   1.270       .  A
O2          Cr19   1.990       .  S
O2            C3   1.261       .  A
C3            O4   1.263       .  A
C3         C3837   1.484       .  S
O4          Cr20   1.995       .  S
O5          Cr20   1.972       .  S
O5            C6   1.263       .  A
C6            O7   1.271       .  A
C6         C3857   1.494       .  S
O7          Cr21   2.024       .  S
O8          Cr21   1.978       .  S
O8            C9   1.260       .  A
C9         C3828   1.491       .  S
O10         Cr19   1.979   1_565  S
O10          C18   1.260       .  A
O11         Cr19   2.018   1_565  S
O11          C12   1.269       .  A
C12          O13   1.259       .  A
C12        C3917   1.468       .  S
O13         Cr20   1.966   1_565  S
O14         Cr20   1.990   1_565  S
O14          C15   1.260       .  A
C15          O16   1.258       .  A
C15        C3908   1.476       .  S
O16         Cr21   1.987   1_565  S
O17         Cr21   2.019   1_565  S
O17          C18   1.268       .  A
C18        C3877   1.507       .  S
Cr19         O22   1.775       .  S
Cr20         O22   1.762       .  S
Cr21         O22   1.773       .  S
O23         Cr41   2.024       .  S
O23          C31   1.269       .  A
O24         Cr41   1.989       .  S
O24          C25   1.262       .  A
C25          O26   1.263       .  A
C25        C3757   1.479       .  S
O26         Cr42   2.005       .  S
O27         Cr42   1.975       .  S
O27          C28   1.260       .  A
C28          O29   1.271       .  A
C28        C3748   1.482       .  S
O29         Cr43   2.028       .  S
O30         Cr43   1.987       .  S
O30          C31   1.263       .  A
C31        C3728   1.496       .  S
O32         Cr41   1.989       .  S
O32          C40   1.262       .  A
O33         Cr41   2.011       .  S
O33          C34   1.267       .  A
C34          O35   1.262       .  A
C34        C3777   1.479       .  S
O35         Cr42   1.979       .  S
O36         Cr42   2.013       .  S
O36          C37   1.266       .  A
C37          O38   1.262       .  A
C37        C3808   1.495       .  S
O38         Cr43   1.996       .  S
O39         Cr43   2.022       .  S
O39          C40   1.268       .  A
C40        C3888   1.498       .  S
Cr41         O44   1.779       .  S
Cr42         O44   1.774       .  S
Cr43         O44   1.779       .  S
O45         Cr63   1.980       .  S
O45          C53   1.257       .  A
O46         Cr63   2.020       .  S
O46          C47   1.270       .  A
C47          O48   1.263       .  A
C47        C3648   1.485       .  S
O48         Cr64   1.964       .  S
O49         Cr64   1.995       .  S
O49          C50   1.259       .  A
C50          O51   1.258       .  A
C50        C3657   1.465       .  S
O51         Cr65   1.985       .  S
O52         Cr65   2.025       .  S
O52          C53   1.270       .  A
C53        C3617   1.508       .  S
O54         Cr63   2.025   1_556  S
O54          C62   1.270       .  A
O55         Cr63   1.990   1_556  S
O55          C56   1.259       .  A
C56          O57   1.259       .  A
C56        C3708   1.475       .  S
O57         Cr64   1.988   1_556  S
O58         Cr64   1.966   1_556  S
O58          C59   1.261       .  A
C59          O60   1.273       .  A
C59        C3677   1.481       .  S
O60         Cr65   2.025   1_556  S
O61         Cr65   1.974   1_556  S
O61          C62   1.259       .  A
C62        C3717   1.499       .  S
Cr63         O66   1.772       .  S
Cr64         O66   1.763       .  S
Cr65         O66   1.772       .  S
O67         Cr85   1.977       .  S
O67          C75   1.259       .  A
O68         Cr85   2.020       .  S
O68          C69   1.268       .  A
C69          O70   1.259       .  A
C69        C3597   1.476       .  S
O70         Cr86   1.974       .  S
O71         Cr86   2.005       .  S
O71          C72   1.263       .  A
C72          O73   1.263       .  A
C72        C3588   1.486       .  S
O73         Cr87   1.989       .  S
O74         Cr87   2.031       .  S
O74          C75   1.272       .  A
C75        C3517   1.503       .  S
O76         Cr85   2.021       .  S
O76          C84   1.268       .  A
O77         Cr85   1.980       .  S
O77          C78   1.260       .  A
C78          O79   1.265       .  A
C78        C3548   1.475       .  S
O79         Cr86   2.007       .  S
O80         Cr86   1.971       .  S
O80          C81   1.259       .  A
C81          O82   1.269       .  A
C81        C3557   1.483       .  S
O82         Cr87   2.022       .  S
O83         Cr87   1.984       .  S
O83          C84   1.260       .  A
C84        C3817   1.496       .  S
Cr85         O88   1.777       .  S
Cr86         O88   1.771       .  S
Cr87         O88   1.774       .  S
O89        Cr107   1.972   1_556  S
O89          C97   1.260       .  A
O90        Cr107   2.028   1_556  S
O90          C91   1.270       .  A
C91          O92   1.258       .  A
C91        C3488   1.478       .  S
O92        Cr108   1.952   1_556  S
O93        Cr108   1.993   1_556  S
O93          C94   1.262       .  A
C94          O95   1.262       .  A
C94        C3497   1.495       .  S
O95        Cr109   1.998   1_556  S
O96        Cr109   2.020   1_556  S
O96          C97   1.269       .  A
C97        C3528   1.503       .  S
O98        Cr107   2.023       .  S
O98         C106   1.271       .  A
O99        Cr107   1.985       .  S
O99         C100   1.259       .  A
C100        O101   1.261       .  A
C100       C3468   1.470       .  S
O101       Cr108   1.990       .  S
O102       Cr108   1.958       .  S
O102        C103   1.258       .  A
C103        O104   1.270       .  A
C103       C3448   1.469       .  S
O104       Cr109   2.021       .  S
O105       Cr109   1.978       .  S
O105        C106   1.258       .  A
C106       C3417   1.504       .  S
Cr107       O110   1.778       .  S
Cr108       O110   1.757       .  S
Cr109       O110   1.773       .  S
O111       Cr129   1.981       .  S
O111        C119   1.261       .  A
O112       Cr129   2.022       .  S
O112        C113   1.270       .  A
C113        O114   1.262       .  A
C113       C3397   1.492       .  S
O114       Cr130   1.980       .  S
O115       Cr130   2.009       .  S
O115        C116   1.265       .  A
C116        O117   1.262       .  A
C116       C3377   1.493       .  S
O117       Cr131   1.993       .  S
O118       Cr131   2.028       .  S
O118        C119   1.270       .  A
C119       C3428   1.492       .  S
O120       Cr129   2.024       .  S
O120        C128   1.269       .  A
O121       Cr129   1.995       .  S
O121        C122   1.263       .  A
C122        O123   1.264       .  A
C122       C3337   1.485       .  S
O123       Cr130   2.006       .  S
O124       Cr130   1.977       .  S
O124        C125   1.261       .  A
C125        O126   1.270       .  A
C125       C3357   1.482       .  S
O126       Cr131   2.024       .  S
O127       Cr131   1.988       .  S
O127        C128   1.261       .  A
C128       C3317   1.501       .  S
Cr129       O132   1.775       .  S
Cr130       O132   1.771       .  S
Cr131       O132   1.777       .  S
O133       Cr151   1.989       .  S
O133        C141   1.263       .  A
O134       Cr151   2.024       .  S
O134        C135   1.270       .  A
C135        O136   1.261       .  A
C135       C3268   1.499       .  S
O136       Cr152   1.981       .  S
O137       Cr152   2.005       .  S
O137        C138   1.264       .  A
C138        O139   1.261       .  A
C138       C3237   1.474       .  S
O139       Cr153   1.989       .  S
O140       Cr153   2.032       .  S
O140        C141   1.271       .  A
C141       C3628   1.502       .  S
O142       Cr151   2.029       .  S
O142        C150   1.269       .  A
O143       Cr151   1.989       .  S
O143        C144   1.263       .  A
C144        O145   1.263       .  A
C144       C3277   1.492       .  S
O145       Cr152   2.005       .  S
O146       Cr152   1.977       .  S
O146        C147   1.261       .  A
C147        O148   1.271       .  A
C147       C3297   1.491       .  S
O148       Cr153   2.030       .  S
O149       Cr153   1.982       .  S
O149        C150   1.260       .  A
C150       C3217   1.493       .  S
Cr151       O154   1.775       .  S
Cr152       O154   1.772       .  S
Cr153       O154   1.774       .  S
O155       Cr173   2.015       .  S
O155        C163   1.268       .  A
O156       Cr173   1.990       .  S
O156        C157   1.258       .  A
C157        O158   1.261       .  A
C157       C3177   1.475       .  S
O158       Cr174   2.004   1_565  S
O159       Cr174   1.966   1_565  S
O159        C160   1.263       .  A
C160        O161   1.268       .  A
C160       C3197   1.483       .  S
O161       Cr175   2.013   1_565  S
O162       Cr175   1.981   1_565  S
O162        C163   1.259       .  A
C163       C3228   1.496       .  S
O164       Cr173   1.978   1_545  S
O164        C172   1.259       .  A
O165       Cr173   2.019   1_545  S
O165        C166   1.271       .  A
C166        O167   1.261       .  A
C166       C3157   1.480       .  S
O167       Cr174   1.961       .  S
O168       Cr174   2.001       .  S
O168        C169   1.261       .  A
C169        O170   1.260       .  A
C169       C3137   1.484       .  S
O170       Cr175   1.990       .  S
O171       Cr175   2.017       .  S
O171        C172   1.269       .  A
C172       C3328   1.493       .  S
Cr173       O176   1.773       .  S
Cr174       O176   1.765   1_545  S
Cr175       O176   1.774   1_545  S
O177       Cr195   1.984   1_556  S
O177        C185   1.260       .  A
O178       Cr195   2.022   1_556  S
O178        C179   1.269       .  A
C179        O180   1.258       .  A
C179       C3108   1.471       .  S
O180       Cr196   1.960   1_556  S
O181       Cr196   1.992   1_556  S
O181        C182   1.260       .  A
C182        O183   1.258       .  A
C182       C3117   1.475       .  S
O183       Cr197   1.981   1_556  S
O184       Cr197   2.021   1_556  S
O184        C185   1.270       .  A
C185       C3088   1.499       .  S
O186       Cr195   2.017       .  S
O186        C194   1.269       .  A
O187       Cr195   1.993       .  S
O187        C188   1.260       .  A
C188        O189   1.263       .  A
C188       C3057   1.488       .  S
O189       Cr196   1.997       .  S
O190       Cr196   1.968       .  S
O190        C191   1.261       .  A
C191        O192   1.271       .  A
C191       C3037   1.477       .  S
O192       Cr197   2.028       .  S
O193       Cr197   1.965       .  S
O193        C194   1.257       .  A
C194       C3017   1.490       .  S
Cr195       O198   1.778       .  S
Cr196       O198   1.760       .  S
Cr197       O198   1.774       .  S
O199       Cr217   2.033       .  S
O199        C207   1.270       .  A
O200       Cr217   1.977       .  S
O200        C201   1.259       .  A
C201        O202   1.268       .  A
C201       C2997   1.485       .  S
O202       Cr218   2.014       .  S
O203       Cr218   1.978       .  S
O203        C204   1.261       .  A
C204        O205   1.270       .  A
C204       C2977   1.489       .  S
O205       Cr219   2.024       .  S
O206       Cr219   1.985       .  S
O206        C207   1.261       .  A
C207       C3077   1.500       .  S
O208       Cr217   1.970       .  S
O208        C216   1.260       .  A
O209       Cr217   2.035       .  S
O209        C210   1.272       .  A
C210        O211   1.262       .  A
C210       C2948   1.491       .  S
O211       Cr218   1.984       .  S
O212       Cr218   2.013       .  S
O212        C213   1.267       .  A
C213        O214   1.261       .  A
C213       C2968   1.492       .  S
O214       Cr219   1.991       .  S
O215       Cr219   2.027       .  S
O215        C216   1.270       .  A
C216       C2917   1.495       .  S
Cr217       O220   1.774       .  S
Cr218       O220   1.768       .  S
Cr219       O220   1.774       .  S
O221       Cr239   2.023       .  S
O221        C229   1.270       .  A
O222       Cr239   1.989       .  S
O222        C223   1.258       .  A
C223        O224   1.260       .  A
C223       C2837   1.485       .  S
O224       Cr240   1.985   1_455  S
O225       Cr240   1.971   1_455  S
O225        C226   1.262       .  A
C226        O227   1.269       .  A
C226       C2857   1.473       .  S
O227       Cr241   2.014   1_455  S
O228       Cr241   1.981   1_455  S
O228        C229   1.260       .  A
C229       C2828   1.510       .  S
O230       Cr239   1.973   1_655  S
O230        C238   1.259       .  A
O231       Cr239   2.027   1_655  S
O231        C232   1.272       .  A
C232        O233   1.264       .  A
C232       C2897   1.485       .  S
O233       Cr240   1.972       .  S
O234       Cr240   1.988       .  S
O234        C235   1.260       .  A
C235        O236   1.261       .  A
C235       C2877   1.484       .  S
O236       Cr241   1.992       .  S
O237       Cr241   2.017       .  S
O237        C238   1.268       .  A
C238       C2928   1.502       .  S
Cr239       O242   1.775   1_455  S
Cr240       O242   1.758       .  S
Cr241       O242   1.777       .  S
O243       Cr261   1.989       .  S
O243        C251   1.264       .  A
O244       Cr261   2.021       .  S
O244        C245   1.270       .  A
C245        O246   1.262       .  A
C245       C2808   1.489       .  S
O246       Cr262   1.978       .  S
O247       Cr262   2.011       .  S
O247        C248   1.265       .  A
C248        O249   1.262       .  A
C248       C2777   1.484       .  S
O249       Cr263   1.992       .  S
O250       Cr263   2.018       .  S
O250        C251   1.266       .  A
C251       C2717   1.493       .  S
O252       Cr261   2.008       .  S
O252        C260   1.266       .  A
O253       Cr261   1.995       .  S
O253        C254   1.261       .  A
C254        O255   1.263       .  A
C254       C2737   1.490       .  S
O255       Cr262   2.006       .  S
O256       Cr262   1.981       .  S
O256        C257   1.261       .  A
C257        O258   1.268       .  A
C257       C2757   1.482       .  S
O258       Cr263   2.019       .  S
O259       Cr263   1.987       .  S
O259        C260   1.263       .  A
C260       C3028   1.486       .  S
Cr261       O264   1.775       .  S
Cr262       O264   1.773       .  S
Cr263       O264   1.774       .  S
O265       Cr283   2.029       .  S
O265        C273   1.273       .  A
O266       Cr283   1.998       .  S
O266        C267   1.262       .  A
C267        O268   1.259       .  A
C267       C2677   1.481       .  S
O268       Cr284   1.991       .  S
O269       Cr284   1.968       .  S
O269        C270   1.259       .  A
C270        O271   1.271       .  A
C270       C2697   1.473       .  S
O271       Cr285   2.026       .  S
O272       Cr285   1.970       .  S
O272        C273   1.258       .  A
C273       C2728   1.505       .  S
O274       Cr283   1.985   1_455  S
O274        C282   1.260       .  A
O275       Cr283   2.032   1_455  S
O275        C276   1.273       .  A
C276        O277   1.259       .  A
C276       C2657   1.478       .  S
O277       Cr284   1.966   1_455  S
O278       Cr284   1.991   1_455  S
O278        C279   1.259       .  A
C279        O280   1.259       .  A
C279       C2637   1.475       .  S
O280       Cr285   1.987   1_455  S
O281       Cr285   2.012   1_455  S
O281        C282   1.268       .  A
C282       C2617   1.500       .  S
Cr283       O286   1.773       .  S
Cr284       O286   1.757       .  S
Cr285       O286   1.773       .  S
O287       Cr305   2.025       .  S
O287        C295   1.269       .  A
O288       Cr305   1.998       .  S
O288        C289   1.263       .  A
C289        O290   1.264       .  A
C289       C2557   1.490       .  S
O290       Cr306   2.009       .  S
O291       Cr306   1.987       .  S
O291        C292   1.264       .  A
C292        O293   1.268       .  A
C292       C2537   1.495       .  S
O293       Cr307   2.017       .  S
O294       Cr307   1.985       .  S
O294        C295   1.260       .  A
C295       C2628   1.492       .  S
O296       Cr305   1.994       .  S
O296        C304   1.263       .  A
O297       Cr305   2.017       .  S
O297        C298   1.268       .  A
C298        O299   1.265       .  A
C298       C2577   1.494       .  S
O299       Cr306   1.986       .  S
O300       Cr306   2.015       .  S
O300        C301   1.266       .  A
C301        O302   1.263       .  A
C301       C2597   1.493       .  S
O302       Cr307   1.994       .  S
O303       Cr307   2.031       .  S
O303        C304   1.271       .  A
C304       C2528   1.506       .  S
Cr305       O308   1.776       .  S
Cr306       O308   1.774       .  S
Cr307       O308   1.774       .  S
O309       Cr327   2.029       .  S
O309        C317   1.271       .  A
O310       Cr327   2.000       .  S
O310        C311   1.265       .  A
C311        O312   1.266       .  A
C311       C2497   1.493       .  S
O312       Cr328   2.012       .  S
O313       Cr328   1.981       .  S
O313        C314   1.261       .  A
C314        O315   1.269       .  A
C314       C2477   1.491       .  S
O315       Cr329   2.018       .  S
O316       Cr329   1.982       .  S
O316        C317   1.261       .  A
C317       C2417   1.495       .  S
O318       Cr327   1.998       .  S
O318        C326   1.264       .  A
O319       Cr327   2.020       .  S
O319        C320   1.269       .  A
C320        O321   1.260       .  A
C320       C2437   1.489       .  S
O321       Cr328   1.977       .  S
O322       Cr328   2.013       .  S
O322        C323   1.268       .  A
C323        O324   1.261       .  A
C323       C2457   1.498       .  S
O324       Cr329   1.988       .  S
O325       Cr329   2.022       .  S
O325        C326   1.268       .  A
C326       C2817   1.501       .  S
Cr327       O330   1.774       .  S
Cr328       O330   1.771       .  S
Cr329       O330   1.774       .  S
O331       Cr349   2.026   1_556  S
O331        C339   1.272       .  A
O332       Cr349   1.983   1_556  S
O332        C333   1.257       .  A
C333        O334   1.262       .  A
C333       C2388   1.468       .  S
O334       Cr350   2.001   1_556  S
O335       Cr350   1.963   1_556  S
O335        C336   1.259       .  A
C336        O337   1.275       .  A
C336       C2397   1.489       .  S
O337       Cr351   2.040   1_556  S
O338       Cr351   1.971   1_556  S
O338        C339   1.257       .  A
C339       C2428   1.502       .  S
O340       Cr349   1.976       .  S
O340        C348   1.259       .  A
O341       Cr349   2.028       .  S
O341        C342   1.272       .  A
C342        O343   1.260       .  A
C342       C2368   1.485       .  S
O343       Cr350   1.958       .  S
O344       Cr350   2.000       .  S
O344        C345   1.262       .  A
C345        O346   1.256       .  A
C345       C2348   1.464       .  S
O346       Cr351   1.975       .  S
O347       Cr351   2.034       .  S
O347        C348   1.272       .  A
C348       C2517   1.514       .  S
Cr349       O352   1.772       .  S
Cr350       O352   1.761       .  S
Cr351       O352   1.770       .  S
O353       Cr371   2.020       .  S
O353        C361   1.269       .  A
O354       Cr371   1.991       .  S
O354        C355   1.259       .  A
C355        O356   1.262       .  A
C355       C2308   1.475       .  S
O356       Cr372   2.003       .  S
O357       Cr372   1.962       .  S
O357        C358   1.262       .  A
C358        O359   1.271       .  A
C358       C2317   1.490       .  S
O359       Cr373   2.028       .  S
O360       Cr373   1.971       .  S
O360        C361   1.255       .  A
C361       C2277   1.504       .  S
O362       Cr371   1.980   1_455  S
O362        C370   1.260       .  A
O363       Cr371   2.015   1_455  S
O363        C364   1.269       .  A
C364        O365   1.262       .  A
C364       C2257   1.480       .  S
O365       Cr372   1.960   1_455  S
O366       Cr372   2.001   1_455  S
O366        C367   1.262       .  A
C367        O368   1.259       .  A
C367       C2248   1.479       .  S
O368       Cr373   1.985   1_455  S
O369       Cr373   2.033   1_455  S
O369        C370   1.272       .  A
C370       C2217   1.509       .  S
Cr371       O374   1.774       .  S
Cr372       O374   1.761       .  S
Cr373       O374   1.774       .  S
O375       Cr393   2.027       .  S
O375        C383   1.270       .  A
O376       Cr393   1.985       .  S
O376        C377   1.260       .  A
C377        O378   1.265       .  A
C377       C2157   1.484       .  S
O378       Cr394   2.014       .  S
O379       Cr394   1.976       .  S
O379        C380   1.260       .  A
C380        O381   1.270       .  A
C380       C2137   1.480       .  S
O381       Cr395   2.024       .  S
O382       Cr395   1.998       .  S
O382        C383   1.265       .  A
C383       C2117   1.512       .  S
O384       Cr393   1.981       .  S
O384        C392   1.259       .  A
O385       Cr393   2.024       .  S
O385        C386   1.271       .  A
C386        O387   1.260       .  A
C386       C2177   1.491       .  S
O387       Cr394   1.974       .  S
O388       Cr394   2.019       .  S
O388        C389   1.267       .  A
C389        O390   1.264       .  A
C389       C2197   1.498       .  S
O390       Cr395   1.998       .  S
O391       Cr395   2.028       .  S
O391        C392   1.270       .  A
C392       C2288   1.498       .  S
Cr393       O396   1.772       .  S
Cr394       O396   1.773       .  S
Cr395       O396   1.773       .  S
O397       Cr415   2.026       .  S
O397        C405   1.270       .  A
O398       Cr415   1.989       .  S
O398        C399   1.259       .  A
C399        O400   1.261       .  A
C399       C2037   1.477       .  S
O400       Cr416   1.994       .  S
O401       Cr416   1.963       .  S
O401        C402   1.260       .  A
C402        O403   1.272       .  A
C402       C2068   1.484       .  S
O403       Cr417   2.028       .  S
O404       Cr417   1.962       .  S
O404        C405   1.258       .  A
C405       C2017   1.503       .  S
O406       Cr415   1.986   1_565  S
O406        C414   1.260       .  A
O407       Cr415   2.020   1_565  S
O407        C408   1.271       .  A
C408        O409   1.259       .  A
C408       C2097   1.479       .  S
O409       Cr416   1.961   1_565  S
O410       Cr416   1.999   1_565  S
O410        C411   1.262       .  A
C411        O412   1.258       .  A
C411       C2077   1.476       .  S
O412       Cr417   1.977   1_565  S
O413       Cr417   2.029   1_565  S
O413        C414   1.270       .  A
C414       C2128   1.508       .  S
Cr415       O418   1.775       .  S
Cr416       O418   1.763       .  S
Cr417       O418   1.772       .  S
O419       Cr437   2.029       .  S
O419        C427   1.271       .  A
O420       Cr437   1.994       .  S
O420        C421   1.261       .  A
C421        O422   1.264       .  A
C421       C1997   1.488       .  S
O422       Cr438   2.008       .  S
O423       Cr438   1.985       .  S
O423        C424   1.262       .  A
C424        O425   1.270       .  A
C424       C1988   1.492       .  S
O425       Cr439   2.025       .  S
O426       Cr439   1.990       .  S
O426        C427   1.264       .  A
C427       C1917   1.498       .  S
O428       Cr437   1.997       .  S
O428        C436   1.264       .  A
O429       Cr437   2.031       .  S
O429        C430   1.272       .  A
C430        O431   1.261       .  A
C430       C1948   1.489       .  S
O431       Cr438   1.977       .  S
O432       Cr438   2.005       .  S
O432        C433   1.263       .  A
C433        O434   1.265       .  A
C433       C1957   1.497       .  S
O434       Cr439   1.998       .  S
O435       Cr439   2.027       .  S
O435        C436   1.268       .  A
C436       C2228   1.513       .  S
Cr437       O440   1.775       .  S
Cr438       O440   1.772       .  S
Cr439       O440   1.774       .  S
O441       Cr459   2.017       .  S
O441        C449   1.268       .  A
O442       Cr459   1.995       .  S
O442        C443   1.259       .  A
C443        O444   1.259       .  A
C443       C1837   1.487       .  S
O444       Cr460   1.997   1_545  S
O445       Cr460   1.959   1_545  S
O445        C446   1.261       .  A
C446        O447   1.273       .  A
C446       C1868   1.466       .  S
O447       Cr461   2.017       .  S
O448       Cr461   1.983       .  S
O448        C449   1.260       .  A
C449       C1828   1.508       .  S
O450       Cr459   1.977   1_565  S
O450        C458   1.260       .  A
O451       Cr459   2.017   1_565  S
O451        C452   1.271       .  A
C452        O453   1.262       .  A
C452       C1897   1.483       .  S
O453       Cr460   1.960       .  S
O454       Cr460   1.994       .  S
O454        C455   1.258       .  A
C455        O456   1.259       .  A
C455       C1888   1.484       .  S
O456       Cr461   1.996   1_565  S
O457       Cr461   2.022   1_565  S
O457        C458   1.269       .  A
C458       C1928   1.510       .  S
Cr459       O462   1.770       .  S
Cr460       O462   1.762   1_565  S
Cr461       O462   1.771       .  S
O463       Cr481   2.016       .  S
O463        C471   1.266       .  A
O464       Cr481   1.986       .  S
O464        C465   1.261       .  A
C465        O466   1.265       .  A
C465       C1757   1.479       .  S
O466       Cr482   2.008       .  S
O467       Cr482   1.981       .  S
O467        C468   1.261       .  A
C468        O469   1.271       .  A
C468       C1737   1.490       .  S
O469       Cr483   2.026       .  S
O470       Cr483   1.985       .  S
O470        C471   1.261       .  A
C471       C2028   1.491       .  S
O472       Cr481   1.978       .  S
O472        C480   1.260       .  A
O473       Cr481   2.014       .  S
O473        C474   1.268       .  A
C474        O475   1.261       .  A
C474       C1777   1.484       .  S
O475       Cr482   1.977       .  S
O476       Cr482   2.009       .  S
O476        C477   1.265       .  A
C477        O478   1.263       .  A
C477       C1797   1.493       .  S
O478       Cr483   1.992       .  S
O479       Cr483   2.029       .  S
O479        C480   1.272       .  A
C480       C1717   1.497       .  S
Cr481       O484   1.774       .  S
Cr482       O484   1.769       .  S
Cr483       O484   1.771       .  S
O485       Cr503   2.035       .  S
O485        C493   1.273       .  A
O486       Cr503   1.986       .  S
O486        C487   1.261       .  A
C487        O488   1.265       .  A
C487       C1657   1.484       .  S
O488       Cr504   2.012       .  S
O489       Cr504   1.978       .  S
O489        C490   1.261       .  A
C490        O491   1.270       .  A
C490       C1648   1.485       .  S
O491       Cr505   2.024       .  S
O492       Cr505   1.979       .  S
O492        C493   1.259       .  A
C493       C1617   1.502       .  S
O494       Cr503   1.986       .  S
O494        C502   1.261       .  A
O495       Cr503   2.031       .  S
O495        C496   1.271       .  A
C496        O497   1.262       .  A
C496       C1688   1.493       .  S
O497       Cr504   1.974       .  S
O498       Cr504   2.013       .  S
O498        C499   1.266       .  A
C499        O500   1.260       .  A
C499       C1697   1.482       .  S
O500       Cr505   1.980       .  S
O501       Cr505   2.027       .  S
O501        C502   1.269       .  A
C502       C1817   1.501       .  S
Cr503       O506   1.771       .  S
Cr504       O506   1.771       .  S
Cr505       O506   1.772       .  S
O507       Cr525   2.025   1_455  S
O507        C515   1.270       .  A
O508       Cr525   1.982   1_455  S
O508        C509   1.256       .  A
C509        O510   1.259       .  A
C509       C1537   1.477       .  S
O510       Cr526   1.997   1_455  S
O511       Cr526   1.969   1_455  S
O511        C512   1.264       .  A
C512        O513   1.271       .  A
C512       C1557   1.488       .  S
O513       Cr527   2.021   1_455  S
O514       Cr527   1.974   1_455  S
O514        C515   1.256       .  A
C515       C1628   1.509       .  S
O516       Cr525   1.968       .  S
O516        C524   1.255       .  A
O517       Cr525   2.030       .  S
O517        C518   1.274       .  A
C518        O519   1.262       .  A
C518       C1597   1.479       .  S
O519       Cr526   1.967       .  S
O520       Cr526   1.992       .  S
O520        C521   1.259       .  A
C521        O522   1.260       .  A
C521       C1588   1.483       .  S
O522       Cr527   1.996       .  S
O523       Cr527   2.023       .  S
O523        C524   1.270       .  A
C524       C1728   1.504       .  S
Cr525       O528   1.775       .  S
Cr526       O528   1.762       .  S
Cr527       O528   1.775       .  S
O529       Cr547   2.021       .  S
O529        C537   1.270       .  A
O530       Cr547   1.977       .  S
O530        C531   1.259       .  A
C531        O532   1.264       .  A
C531       C1517   1.486       .  S
O532       Cr548   2.011       .  S
O533       Cr548   1.973       .  S
O533        C534   1.261       .  A
C534        O535   1.270       .  A
C534       C2888   1.479       .  S
O535       Cr549   2.015       .  S
O536       Cr549   1.979       .  S
O536        C537   1.258       .  A
C537       C2937   1.494       .  S
O538       Cr547   1.967       .  S
O538        C546   1.258       .  A
O539       Cr547   2.023       .  S
O539        C540   1.270       .  A
C540        O541   1.262       .  A
C540       C1497   1.482       .  S
O541       Cr548   1.975       .  S
O542       Cr548   2.013       .  S
O542        C543   1.266       .  A
C543        O544   1.256       .  A
C543       C1608   1.494       .  S
O544       Cr549   1.979       .  S
O545       Cr549   2.015       .  S
O545        C546   1.268       .  A
C546       C1808   1.496       .  S
Cr547       O550   1.772       .  S
Cr548       O550   1.764       .  S
Cr549       O550   1.773       .  S
O551       Cr569   1.967       .  S
O551        C559   1.258       .  A
O552       Cr569   2.026       .  S
O552        C553   1.271       .  A
C553        O554   1.260       .  A
C553       C1477   1.481       .  S
O554       Cr570   1.966       .  S
O555       Cr570   2.011       .  S
O555        C556   1.265       .  A
C556        O557   1.258       .  A
C556       C3897   1.468       .  S
O557       Cr571   1.975       .  S
O558       Cr571   2.011       .  S
O558        C559   1.264       .  A
C559       C3788   1.488       .  S
O560       Cr569   2.023       .  S
O560        C568   1.272       .  A
O561       Cr569   1.973       .  S
O561        C562   1.257       .  A
C562        O563   1.264       .  A
C562       C1457   1.471       .  S
O563       Cr570   2.000       .  S
O564       Cr570   1.960       .  S
O564        C565   1.256       .  A
C565        O566   1.267       .  A
C565       C2108   1.469       .  S
O566       Cr571   2.019       .  S
O567       Cr571   1.966       .  S
O567        C568   1.257       .  A
C568       C2168   1.489       .  S
Cr569       O572   1.768       .  S
Cr570       O572   1.765       .  S
Cr571       O572   1.773       .  S
O573       Cr591   2.026       .  S
O573        C581   1.270       .  A
O574       Cr591   1.986       .  S
O574        C575   1.260       .  A
C575        O576   1.263       .  A
C575       C1437   1.481       .  S
O576       Cr592   2.003       .  S
O577       Cr592   1.972       .  S
O577        C578   1.262       .  A
C578        O579   1.269       .  A
C578       C1877   1.494       .  S
O579       Cr593   2.018       .  S
O580       Cr593   1.966       .  S
O580        C581   1.254       .  A
C581       C1977   1.497       .  S
O582       Cr591   1.973       .  S
O582        C590   1.257       .  A
O583       Cr591   2.025       .  S
O583        C584   1.270       .  A
C584        O585   1.263       .  A
C584       C1488   1.492       .  S
O585       Cr592   1.975       .  S
O586       Cr592   2.006       .  S
O586        C587   1.264       .  A
C587        O588   1.255       .  A
C587       C3928   1.475       .  S
O588       Cr593   1.968       .  S
O589       Cr593   2.023       .  S
O589        C590   1.271       .  A
C590       C3797   1.504       .  S
Cr591       O594   1.770       .  S
Cr592       O594   1.766       .  S
Cr593       O594   1.772       .  S
O595       Cr613   2.018       .  S
O595        C603   1.267       .  A
O596       Cr613   1.989       .  S
O596        C597   1.261       .  A
C597        O598   1.265       .  A
C597       C1417   1.486       .  S
O598       Cr614   2.004       .  S
O599       Cr614   1.961       .  S
O599        C600   1.258       .  A
C600        O601   1.274       .  A
C600       C2297   1.492       .  S
O601       Cr615   2.032       .  S
O602       Cr615   1.965       .  S
O602        C603   1.254       .  A
C603       C2188   1.495       .  S
O604       Cr613   1.967       .  S
O604        C612   1.257       .  A
O605       Cr613   2.018       .  S
O605        C606   1.269       .  A
C606        O607   1.262       .  A
C606       C1528   1.477       .  S
O607       Cr614   1.974       .  S
O608       Cr614   2.009       .  S
O608        C609   1.263       .  A
C609        O610   1.257       .  A
C609       C2908   1.485       .  S
O610       Cr615   1.976       .  S
O611       Cr615   2.026       .  S
O611        C612   1.272       .  A
C612       C2957   1.500       .  S
Cr613       O616   1.773       .  S
Cr614       O616   1.760       .  S
Cr615       O616   1.772       .  S
O617       Cr635   1.965       .  S
O617        C625   1.257       .  A
O618       Cr635   2.019       .  S
O618        C619   1.267       .  A
C619        O620   1.259       .  A
C619       C1397   1.486       .  S
O620       Cr636   1.969       .  S
O621       Cr636   2.016       .  S
O621        C622   1.267       .  A
C622        O623   1.257       .  A
C622       C2688   1.476       .  S
O623       Cr637   1.976       .  S
O624       Cr637   2.015       .  S
O624        C625   1.267       .  A
C625       C2788   1.493       .  S
O626       Cr635   2.026       .  S
O626        C634   1.270       .  A
O627       Cr635   1.963       .  S
O627        C628   1.258       .  A
C628        O629   1.270       .  A
C628       C1428   1.484       .  S
O629       Cr636   2.024       .  S
O630       Cr636   1.961       .  S
O630        C631   1.259       .  A
C631        O632   1.268       .  A
C631       C2328   1.472       .  S
O632       Cr637   2.018       .  S
O633       Cr637   1.980       .  S
O633        C634   1.261       .  A
C634       C2208   1.500       .  S
Cr635       O638   1.772       .  S
Cr636       O638   1.767       .  S
Cr637       O638   1.773       .  S
O639       Cr657   1.978       .  S
O639        C647   1.260       .  A
O640       Cr657   2.019       .  S
O640        C641   1.269       .  A
C641        O642   1.263       .  A
C641       C1388   1.489       .  S
O642       Cr658   1.978       .  S
O643       Cr658   2.000       .  S
O643        C644   1.262       .  A
C644        O645   1.260       .  A
C644       C3688   1.485       .  S
O645       Cr659   1.986       .  S
O646       Cr659   2.015       .  S
O646        C647   1.267       .  A
C647       C3737   1.497       .  S
O648       Cr657   2.018       .  S
O648        C656   1.268       .  A
O649       Cr657   1.993       .  S
O649        C650   1.261       .  A
C650        O651   1.263       .  A
C650       C1357   1.488       .  S
O651       Cr658   2.001       .  S
O652       Cr658   1.974       .  S
O652        C653   1.261       .  A
C653        O654   1.268       .  A
C653       C2408   1.471       .  S
O654       Cr659   2.021       .  S
O655       Cr659   1.977       .  S
O655        C656   1.260       .  A
C656       C2508   1.497       .  S
Cr657       O660   1.772       .  S
Cr658       O660   1.762       .  S
Cr659       O660   1.774       .  S
O661       Cr679   1.978       .  S
O661        C669   1.260       .  A
O662       Cr679   2.030       .  S
O662        C663   1.272       .  A
C663        O664   1.260       .  A
C663       C1348   1.487       .  S
O664       Cr680   1.959       .  S
O665       Cr680   2.010       .  S
O665        C666   1.264       .  A
C666        O667   1.258       .  A
C666       C3097   1.483       .  S
O667       Cr681   1.973       .  S
O668       Cr681   2.013       .  S
O668        C669   1.266       .  A
C669       C2988   1.498       .  S
O670       Cr679   2.033       .  S
O670        C678   1.273       .  A
O671       Cr679   1.981       .  S
O671        C672   1.258       .  A
C672        O673   1.265       .  A
C672       C1377   1.492       .  S
O673       Cr680   2.008       .  S
O674       Cr680   1.960       .  S
O674        C675   1.257       .  A
C675        O676   1.270       .  A
C675       C3697   1.480       .  S
O676       Cr681   2.020       .  S
O677       Cr681   1.959       .  S
O677        C678   1.254       .  A
C678       C3768   1.501       .  S
Cr679       O682   1.771       .  S
Cr680       O682   1.764       .  S
Cr681       O682   1.772       .  S
O683       Cr701   2.019       .  S
O683        C691   1.268       .  A
O684       Cr701   1.980       .  S
O684        C685   1.261       .  A
C685        O686   1.264       .  A
C685       C1468   1.483       .  S
O686       Cr702   2.003       .  S
O687       Cr702   1.953       .  S
O687        C688   1.257       .  A
C688        O689   1.274       .  A
C688       C2088   1.486       .  S
O689       Cr703   2.032       .  S
O690       Cr703   1.963       .  S
O690        C691   1.255       .  A
C691       C2148   1.484       .  S
O692       Cr701   1.965       .  S
O692        C700   1.258       .  A
O693       Cr701   2.020       .  S
O693        C694   1.269       .  A
C694        O695   1.261       .  A
C694       C1317   1.486       .  S
O695       Cr702   1.971       .  S
O696       Cr702   2.002       .  S
O696        C697   1.261       .  A
C697        O698   1.253       .  A
C697       C3208   1.466       .  S
O698       Cr703   1.965       .  S
O699       Cr703   2.027       .  S
O699        C700   1.271       .  A
C700       C3308   1.488       .  S
Cr701       O704   1.769       .  S
Cr702       O704   1.764       .  S
Cr703       O704   1.771       .  S
O705       Cr723   2.022       .  S
O705        C713   1.269       .  A
O706       Cr723   1.972       .  S
O706        C707   1.256       .  A
C707        O708   1.268       .  A
C707       C1297   1.487       .  S
O708       Cr724   2.017       .  S
O709       Cr724   1.958       .  S
O709        C710   1.259       .  A
C710        O711   1.271       .  A
C710       C3477   1.477       .  S
O711       Cr725   2.025       .  S
O712       Cr725   1.962       .  S
O712        C713   1.254       .  A
C713       C3577   1.495       .  S
O714       Cr723   1.957       .  S
O714        C722   1.254       .  A
O715       Cr723   2.025       .  S
O715        C716   1.271       .  A
C716        O717   1.260       .  A
C716       C1337   1.478       .  S
O717       Cr724   1.968       .  S
O718       Cr724   2.012       .  S
O718        C719   1.266       .  A
C719        O720   1.255       .  A
C719       C3128   1.480       .  S
O720       Cr725   1.972       .  S
O721       Cr725   2.022       .  S
O721        C722   1.270       .  A
C722       C3008   1.495       .  S
Cr723       O726   1.769       .  S
Cr724       O726   1.764       .  S
Cr725       O726   1.773       .  S
O727       Cr745   2.018       .  S
O727        C735   1.267       .  A
O728       Cr745   1.982       .  S
O728        C729   1.260       .  A
C729        O730   1.262       .  A
C729       C1277   1.473       .  S
O730       Cr746   1.996       .  S
O731       Cr746   1.973       .  S
O731        C732   1.263       .  A
C732        O733   1.269       .  A
C732       C3148   1.494       .  S
O733       Cr747   2.018       .  S
O734       Cr747   1.964       .  S
O734        C735   1.258       .  A
C735       C3348   1.492       .  S
O736       Cr745   1.966       .  S
O736        C744   1.258       .  A
O737       Cr745   2.012       .  S
O737        C738   1.267       .  A
C738        O739   1.264       .  A
C738       C1257   1.489       .  S
O739       Cr746   1.977       .  S
O740       Cr746   2.001       .  S
O740        C741   1.262       .  A
C741        O742   1.258       .  A
C741       C2057   1.487       .  S
O742       Cr747   1.978       .  S
O743       Cr747   2.011       .  S
O743        C744   1.266       .  A
C744       C1768   1.494       .  S
Cr745       O748   1.769       .  S
Cr746       O748   1.761       .  S
Cr747       O748   1.771       .  S
O749       Cr767   2.025       .  S
O749        C757   1.269       .  A
O750       Cr767   1.977       .  S
O750        C751   1.260       .  A
C751        O752   1.265       .  A
C751       C1328   1.488       .  S
O752       Cr768   2.010       .  S
O753       Cr768   1.963       .  S
O753        C754   1.259       .  A
C754        O755   1.271       .  A
C754       C3188   1.483       .  S
O755       Cr769   2.025       .  S
O756       Cr769   1.965       .  S
O756        C757   1.257       .  A
C757       C3288   1.480       .  S
O758       Cr767   1.966       .  S
O758        C766   1.256       .  A
O759       Cr767   2.024       .  S
O759        C760   1.270       .  A
C760        O761   1.260       .  A
C760       C1448   1.494       .  S
O761       Cr768   1.968       .  S
O762       Cr768   2.002       .  S
O762        C763   1.264       .  A
C763        O764   1.256       .  A
C763       C1908   1.468       .  S
O764       Cr769   1.971       .  S
O765       Cr769   2.021       .  S
O765        C766   1.269       .  A
C766       C2008   1.491       .  S
Cr767       O770   1.769       .  S
Cr768       O770   1.761       .  S
Cr769       O770   1.771       .  S
O771       Cr789   2.029       .  S
O771        C779   1.272       .  A
O772       Cr789   1.982       .  S
O772        C773   1.259       .  A
C773        O774   1.265       .  A
C773       C1237   1.488       .  S
O774       Cr790   2.004       .  S
O775       Cr790   1.964       .  S
O775        C776   1.260       .  A
C776        O777   1.269       .  A
C776       C2848   1.470       .  S
O777       Cr791   2.019       .  S
O778       Cr791   1.957       .  S
O778        C779   1.254       .  A
C779       C2448   1.494       .  S
O780       Cr789   1.969       .  S
O780        C788   1.258       .  A
O781       Cr789   2.024       .  S
O781        C782   1.272       .  A
C782        O783   1.261       .  A
C782       C1217   1.479       .  S
O783       Cr790   1.970       .  S
O784       Cr790   2.002       .  S
O784        C785   1.262       .  A
C785        O786   1.256       .  A
C785       C2268   1.473       .  S
O786       Cr791   1.968       .  S
O787       Cr791   2.016       .  S
O787        C788   1.267       .  A
C788       C1968   1.488       .  S
Cr789       O792   1.767       .  S
Cr790       O792   1.762       .  S
Cr791       O792   1.772       .  S
O793       Cr811   2.020       .  S
O793        C801   1.270       .  A
O794       Cr811   1.972       .  S
O794        C795   1.254       .  A
C795        O796   1.264       .  A
C795       C1197   1.484       .  S
O796       Cr812   1.999       .  S
O797       Cr812   1.967       .  S
O797        C798   1.261       .  A
C798        O799   1.270       .  A
C798       C3848   1.475       .  S
O799       Cr813   2.023       .  S
O800       Cr813   1.957       .  S
O800        C801   1.257       .  A
C801       C3537   1.494       .  S
O802       Cr811   1.959       .  S
O802        C810   1.253       .  A
O803       Cr811   2.024       .  S
O803        C804   1.272       .  A
C804        O805   1.261       .  A
C804       C1177   1.479       .  S
O805       Cr812   1.966       .  S
O806       Cr812   2.001       .  S
O806        C807   1.264       .  A
C807        O808   1.255       .  A
C807       C1857   1.473       .  S
O808       Cr813   1.967       .  S
O809       Cr813   2.017       .  S
O809        C810   1.268       .  A
C810       C1708   1.492       .  S
Cr811       O814   1.766       .  S
Cr812       O814   1.761       .  S
Cr813       O814   1.771       .  S
O815       Cr833   2.015       .  S
O815        C823   1.267       .  A
O816       Cr833   1.982       .  S
O816        C817   1.260       .  A
C817        O818   1.266       .  A
C817       C1508   1.487       .  S
O818       Cr834   2.012       .  S
O819       Cr834   1.966       .  S
O819        C820   1.260       .  A
C820        O821   1.270       .  A
C820       C1577   1.489       .  S
O821       Cr835   2.023       .  S
O822       Cr835   1.957       .  S
O822        C823   1.254       .  A
C823       C1788   1.484       .  S
O824       Cr833   1.968       .  S
O824        C832   1.258       .  A
O825       Cr833   2.019       .  S
O825        C826   1.269       .  A
C826        O827   1.260       .  A
C826       C1408   1.471       .  S
O827       Cr834   1.969       .  S
O828       Cr834   2.014       .  S
O828        C829   1.267       .  A
C829        O830   1.255       .  A
C829       C2708   1.484       .  S
O830       Cr835   1.968       .  S
O831       Cr835   2.017       .  S
O831        C832   1.270       .  A
C832       C2797   1.486       .  S
Cr833       O836   1.772       .  S
Cr834       O836   1.760       .  S
Cr835       O836   1.769       .  S
O837       Cr855   2.020       .  S
O837        C845   1.269       .  A
O838       Cr855   1.984       .  S
O838        C839   1.259       .  A
C839        O840   1.265       .  A
C839       C1228   1.493       .  S
O840       Cr856   2.006       .  S
O841       Cr856   1.967       .  S
O841        C842   1.263       .  A
C842        O843   1.271       .  A
C842       C2237   1.487       .  S
O843       Cr857   2.021       .  S
O844       Cr857   1.976       .  S
O844        C845   1.258       .  A
C845       C1937   1.502       .  S
O846       Cr855   1.966       .  S
O846        C854   1.258       .  A
O847       Cr855   2.018       .  S
O847        C848   1.270       .  A
C848        O849   1.260       .  A
C848       C1157   1.475       .  S
O849       Cr856   1.969       .  S
O850       Cr856   2.004       .  S
O850        C851   1.263       .  A
C851        O852   1.257       .  A
C851       C2668   1.495       .  S
O852       Cr857   1.988       .  S
O853       Cr857   2.017       .  S
O853        C854   1.268       .  A
C854       C2568   1.495       .  S
Cr855       O858   1.772       .  S
Cr856       O858   1.763       .  S
Cr857       O858   1.771       .  S
O859       Cr877   2.012       .  S
O859        C867   1.267       .  A
O860       Cr877   1.987       .  S
O860        C861   1.260       .  A
C861        O862   1.265       .  A
C861       C1137   1.479       .  S
O862       Cr878   2.008       .  S
O863       Cr878   1.957       .  S
O863        C864   1.260       .  A
C864        O865   1.271       .  A
C864       C1548   1.483       .  S
O865       Cr879   2.025       .  S
O866       Cr879   1.969       .  S
O866        C867   1.256       .  A
C867       C1637   1.488       .  S
O868       Cr877   1.968       .  S
O868        C876   1.256       .  A
O869       Cr877   2.017       .  S
O869        C870   1.269       .  A
C870        O871   1.259       .  A
C870       C1248   1.476       .  S
O871       Cr878   1.965       .  S
O872       Cr878   2.008       .  S
O872        C873   1.265       .  A
C873        O874   1.255       .  A
C873       C2868   1.487       .  S
O874       Cr879   1.973       .  S
O875       Cr879   2.024       .  S
O875        C876   1.271       .  A
C876       C2468   1.502       .  S
Cr877       O880   1.769       .  S
Cr878       O880   1.762       .  S
Cr879       O880   1.771       .  S
O881       Cr899   2.021       .  S
O881        C889   1.270       .  A
O882       Cr899   1.981       .  S
O882        C883   1.258       .  A
C883        O884   1.261       .  A
C883       C1268   1.479       .  S
O884       Cr900   1.999       .  S
O885       Cr900   1.967       .  S
O885        C886   1.260       .  A
C886        O887   1.269       .  A
C886       C2048   1.468       .  S
O887       Cr901   2.017       .  S
O888       Cr901   1.967       .  S
O888        C889   1.257       .  A
C889       C1748   1.494       .  S
O890       Cr899   1.970       .  S
O890        C898   1.258       .  A
O891       Cr899   2.016       .  S
O891        C892   1.272       .  A
C892        O893   1.261       .  A
C892       C1208   1.477       .  S
O893       Cr900   1.964       .  S
O894       Cr900   2.007       .  S
O894        C895   1.263       .  A
C895        O896   1.259       .  A
C895       C3868   1.488       .  S
O896       Cr901   1.985       .  S
O897       Cr901   2.011       .  S
O897        C898   1.266       .  A
C898       C3568   1.491       .  S
Cr899       O902   1.770       .  S
Cr900       O902   1.763       .  S
Cr901       O902   1.769       .  S
O903       Cr921   1.972       .  S
O903        C911   1.259       .  A
O904       Cr921   2.024       .  S
O904        C905   1.272       .  A
C905        O906   1.262       .  A
C905       C1368   1.487       .  S
O906       Cr922   1.978       .  S
O907       Cr922   2.002       .  S
O907        C908   1.262       .  A
C908        O909   1.257       .  A
C908       C2377   1.480       .  S
O909       Cr923   1.975       .  S
O910       Cr923   2.017       .  S
O910        C911   1.267       .  A
C911       C2488   1.493       .  S
O912       Cr921   2.018       .  S
O912        C920   1.268       .  A
O913       Cr921   1.988       .  S
O913        C914   1.260       .  A
C914        O915   1.263       .  A
C914       C1308   1.483       .  S
O915       Cr922   2.002       .  S
O916       Cr922   1.974       .  S
O916        C917   1.260       .  A
C917        O918   1.270       .  A
C917       C3508   1.478       .  S
O918       Cr923   2.023       .  S
O919       Cr923   1.965       .  S
O919        C920   1.259       .  A
C920       C3608   1.496       .  S
Cr921       O924   1.772       .  S
Cr922       O924   1.763       .  S
Cr923       O924   1.773       .  S
O925       Cr943   1.978       .  S
O925        C933   1.258       .  A
O926       Cr943   2.015       .  S
O926        C927   1.268       .  A
C927        O928   1.265       .  A
C927       C1117   1.492       .  S
O928       Cr944   1.975       .  S
O929       Cr944   2.010       .  S
O929        C930   1.266       .  A
C930        O931   1.257       .  A
C930       C3637   1.482       .  S
O931       Cr945   1.972       .  S
O932       Cr945   2.013       .  S
O932        C933   1.268       .  A
C933       C3248   1.499       .  S
O934       Cr943   2.020       .  S
O934        C942   1.268       .  A
O935       Cr943   1.986       .  S
O935        C936   1.261       .  A
C936        O937   1.262       .  A
C936       C1097   1.477       .  S
O937       Cr944   1.997       .  S
O938       Cr944   1.968       .  S
O938        C939   1.259       .  A
C939        O940   1.268       .  A
C939       C3068   1.481       .  S
O940       Cr945   2.019       .  S
O941       Cr945   1.957       .  S
O941        C942   1.256       .  A
C942       C2768   1.491       .  S
Cr943       O946   1.772       .  S
Cr944       O946   1.762       .  S
Cr945       O946   1.775       .  S
O947       Cr965   2.020       .  S
O947        C955   1.268       .  A
O948       Cr965   1.984       .  S
O948        C949   1.259       .  A
C949        O950   1.264       .  A
C949       C1077   1.489       .  S
O950       Cr966   1.997       .  S
O951       Cr966   1.967       .  S
O951        C952   1.261       .  A
C952        O953   1.267       .  A
C952       C2337   1.482       .  S
O953       Cr967   2.013       .  S
O954       Cr967   1.967       .  S
O954        C955   1.259       .  A
C955       C2588   1.498       .  S
O956       Cr965   1.976       .  S
O956        C964   1.259       .  A
O957       Cr965   2.022       .  S
O957        C958   1.270       .  A
C958        O959   1.260       .  A
C958       C1128   1.469       .  S
O959       Cr966   1.966       .  S
O960       Cr966   2.002       .  S
O960        C961   1.263       .  A
C961        O962   1.256       .  A
C961       C3668   1.476       .  S
O962       Cr967   1.972       .  S
O963       Cr967   2.008       .  S
O963        C964   1.266       .  A
C964       C3257   1.479       .  S
Cr965       O968   1.771       .  S
Cr966       O968   1.763       .  S
Cr967       O968   1.770       .  S
O969       Cr987   2.027       .  S
O969        C977   1.270       .  A
O970       Cr987   1.979       .  S
O970        C971   1.258       .  A
C971        O972   1.264       .  A
C971       C1108   1.475       .  S
O972       Cr988   2.008       .  S
O973       Cr988   1.968       .  S
O973        C974   1.261       .  A
C974        O975   1.270       .  A
C974       C3048   1.491       .  S
O975       Cr989   2.025       .  S
O976       Cr989   1.961       .  S
O976        C977   1.257       .  A
C977       C2748   1.494       .  S
O978       Cr987   1.973       .  S
O978        C986   1.259       .  A
O979       Cr987   2.033       .  S
O979        C980   1.273       .  A
C980        O981   1.261       .  A
C980       C1068   1.485       .  S
O981       Cr988   1.972       .  S
O982       Cr988   2.007       .  S
O982        C983   1.264       .  A
C983        O984   1.255       .  A
C983       C3457   1.474       .  S
O984       Cr989   1.969       .  S
O985       Cr989   2.015       .  S
O985        C986   1.268       .  A
C986       C3408   1.487       .  S
Cr987       O990   1.770       .  S
Cr988       O990   1.765       .  S
Cr989       O990   1.770       .  S
O991      Cr1009   1.965       .  S
O991        C999   1.257       .  A
O992      Cr1009   2.022       .  S
O992        C993   1.268       .  A
C993        O994   1.258       .  A
C993       C1168   1.490       .  S
O994      Cr1010   1.964       .  S
O995      Cr1010   2.009       .  S
O995        C996   1.265       .  A
C996        O997   1.256       .  A
C996       C2648   1.473       .  S
O997      Cr1011   1.969       .  S
O998      Cr1011   2.020       .  S
O998        C999   1.269       .  A
C999       C2548   1.485       .  S
O1000     Cr1009   2.022       .  S
O1000      C1008   1.269       .  A
O1001     Cr1009   1.968       .  S
O1001      C1002   1.258       .  A
C1002      O1003   1.267       .  A
C1002      C1148   1.472       .  S
O1003     Cr1010   2.014       .  S
O1004     Cr1010   1.954       .  S
O1004      C1005   1.256       .  A
C1005      O1006   1.270       .  A
C1005      C1568   1.474       .  S
O1006     Cr1011   2.025       .  S
O1007     Cr1011   1.969       .  S
O1007      C1008   1.258       .  A
C1008      C1668   1.490       .  S
Cr1009     O1012   1.770       .  S
Cr1010     O1012   1.767       .  S
Cr1011     O1012   1.774       .  S
O1013     Cr1031   2.028       .  S
O1013      C1021   1.271       .  A
O1014     Cr1031   1.976       .  S
O1014      C1015   1.258       .  A
C1015      O1016   1.265       .  A
C1015      C1188   1.485       .  S
O1016     Cr1032   2.002       .  S
O1017     Cr1032   1.966       .  S
O1017      C1018   1.260       .  A
C1018      O1019   1.270       .  A
C1018      C1848   1.484       .  S
O1019     Cr1033   2.024       .  S
O1020     Cr1033   1.961       .  S
O1020      C1021   1.258       .  A
C1021      C1677   1.498       .  S
O1022     Cr1031   1.976       .  S
O1022      C1030   1.258       .  A
O1023     Cr1031   2.021       .  S
O1023      C1024   1.271       .  A
C1024      O1025   1.258       .  A
C1024      C1288   1.481       .  S
O1025     Cr1032   1.960       .  S
O1026     Cr1032   2.007       .  S
O1026      C1027   1.264       .  A
C1027      O1028   1.257       .  A
C1027      C3168   1.483       .  S
O1028     Cr1033   1.970       .  S
O1029     Cr1033   2.015       .  S
O1029      C1030   1.266       .  A
C1030      C3368   1.497       .  S
Cr1031     O1034   1.770       .  S
Cr1032     O1034   1.762       .  S
Cr1033     O1034   1.771       .  S
O1035     Cr1053   2.023       .  S
O1035      C1043   1.270       .  A
O1036     Cr1053   1.995       .  S
O1036      C1037   1.262       .  A
C1037      O1038   1.262       .  A
C1037      C1057   1.490       .  S
O1038     Cr1054   2.002       .  S
O1039     Cr1054   1.965       .  S
O1039      C1040   1.260       .  A
C1040      O1041   1.269       .  A
C1040      C3437   1.470       .  S
O1041     Cr1055   2.019       .  S
O1042     Cr1055   1.965       .  S
O1042      C1043   1.258       .  A
C1043      C3388   1.491       .  S
O1044     Cr1053   1.983       .  S
O1044      C1052   1.260       .  A
O1045     Cr1053   2.020       .  S
O1045      C1046   1.271       .  A
C1046      O1047   1.260       .  A
C1046      C1088   1.471       .  S
O1047     Cr1054   1.963       .  S
O1048     Cr1054   2.004       .  S
O1048      C1049   1.262       .  A
C1049      O1050   1.260       .  A
C1049      C2357   1.488       .  S
O1050     Cr1055   1.979       .  S
O1051     Cr1055   2.016       .  S
O1051      C1052   1.267       .  A
C1052      C2608   1.498       .  S
Cr1053     O1056   1.770       .  S
Cr1054     O1056   1.760       .  S
Cr1055     O1056   1.772       .  S
C1057      C1058   1.417       .  A
C1057      C1062   1.408       .  A
C1058      C1059   1.398       .  A
C1058     Br1074   1.923       .  S
C1059      C1060   1.400       .  A
C1059      H1063   1.084       .  S
C1060      C1064   1.485       .  S
C1060      C1061   1.408       .  A
C1061      C1062   1.406       .  A
C1061     Br1073   1.917       .  S
C1062      H1065   1.083       .  S
C1064      C1066   1.404       .  A
C1064      C1070   1.408       .  A
C1066      C1067   1.404       .  A
C1066      H1071   1.083       .  S
C1067      C1068   1.413       .  A
C1067     Br1075   1.919       .  S
C1068      C1069   1.407       .  A
C1069      C1070   1.401       .  A
C1069      H1072   1.083       .  S
C1070     Br1076   1.919       .  S
C1077      C1078   1.418       .  A
C1077      C1082   1.410       .  A
C1078      C1079   1.402       .  A
C1078     Br1094   1.919       .  S
C1079      C1080   1.400       .  A
C1079      H1083   1.084       .  S
C1080      C1084   1.472       .  S
C1080      C1081   1.403       .  A
C1081      C1082   1.393       .  A
C1081     Br1093   1.921       .  S
C1082      H1085   1.083       .  S
C1084      C1086   1.400       .  A
C1084      C1090   1.407       .  A
C1086      C1087   1.396       .  A
C1086      H1091   1.083       .  S
C1087      C1088   1.412       .  A
C1087     Br1095   1.922       .  S
C1088      C1089   1.404       .  A
C1089      C1090   1.399       .  A
C1089      H1092   1.083       .  S
C1090     Br1096   1.918       .  S
C1097      C1098   1.414       .  A
C1097      C1102   1.406       .  A
C1098      C1099   1.396       .  A
C1098     Br1114   1.921       .  S
C1099      C1100   1.398       .  A
C1099      H1103   1.084       .  S
C1100      C1104   1.474       .  S
C1100      C1101   1.406       .  A
C1101      C1102   1.401       .  A
C1101     Br1113   1.917       .  S
C1102      H1105   1.083       .  S
C1104      C1106   1.400       .  A
C1104      C1110   1.406       .  A
C1106      C1107   1.399       .  A
C1106      H1111   1.084       .  S
C1107      C1108   1.412       .  A
C1107     Br1115   1.918       .  S
C1108      C1109   1.404       .  A
C1109      C1110   1.398       .  A
C1109      H1112   1.084       .  S
C1110     Br1116   1.919       .  S
C1117      C1118   1.421       .  A
C1117      C1122   1.408       .  A
C1118      C1119   1.402       .  A
C1118     Br1134   1.923       .  S
C1119      C1120   1.401       .  A
C1119      H1123   1.084       .  S
C1120      C1124   1.481       .  S
C1120      C1121   1.407       .  A
C1121      C1122   1.396       .  A
C1121     Br1133   1.921       .  S
C1122      H1125   1.083       .  S
C1124      C1126   1.405       .  A
C1124      C1130   1.410       .  A
C1126      C1127   1.397       .  A
C1126      H1131   1.083       .  S
C1127      C1128   1.407       .  A
C1127     Br1135   1.921       .  S
C1128      C1129   1.403       .  A
C1129      C1130   1.400       .  A
C1129      H1132   1.083       .  S
C1130     Br1136   1.919       .  S
C1137      C1138   1.412       .  A
C1137      C1142   1.406       .  A
C1138      C1139   1.396       .  A
C1138     Br1154   1.921       .  S
C1139      C1140   1.399       .  A
C1139      H1143   1.086       .  S
C1140      C1144   1.478       .  S
C1140      C1141   1.409       .  A
C1141      C1142   1.404       .  A
C1141     Br1153   1.918       .  S
C1142      H1145   1.085       .  S
C1144      C1146   1.402       .  A
C1144      C1150   1.408       .  A
C1146      C1147   1.400       .  A
C1146      H1151   1.083       .  S
C1147      C1148   1.409       .  A
C1147     Br1155   1.920       .  S
C1148      C1149   1.403       .  A
C1149      C1150   1.400       .  A
C1149      H1152   1.084       .  S
C1150     Br1156   1.919       .  S
C1157      C1158   1.411       .  A
C1157      C1162   1.402       .  A
C1158      C1159   1.399       .  A
C1158     Br1174   1.922       .  S
C1159      C1160   1.405       .  A
C1159      H1163   1.083       .  S
C1160      C1164   1.485       .  S
C1160      C1161   1.412       .  A
C1161      C1162   1.398       .  A
C1161     Br1173   1.919       .  S
C1162      H1165   1.084       .  S
C1164      C1166   1.404       .  A
C1164      C1170   1.409       .  A
C1166      C1167   1.403       .  A
C1166      H1171   1.083       .  S
C1167      C1168   1.417       .  A
C1167     Br1175   1.920       .  S
C1168      C1169   1.409       .  A
C1169      C1170   1.395       .  A
C1169      H1172   1.083       .  S
C1170     Br1176   1.923       .  S
C1177      C1178   1.414       .  A
C1177      C1182   1.405       .  A
C1178      C1179   1.396       .  A
C1178     Br1194   1.918       .  S
C1179      C1180   1.398       .  A
C1179      H1183   1.084       .  S
C1180      C1184   1.475       .  S
C1180      C1181   1.407       .  A
C1181      C1182   1.400       .  A
C1181     Br1193   1.918       .  S
C1182      H1185   1.083       .  S
C1184      C1186   1.401       .  A
C1184      C1190   1.405       .  A
C1186      C1187   1.401       .  A
C1186      H1191   1.084       .  S
C1187      C1188   1.417       .  A
C1187     Br1195   1.919       .  S
C1188      C1189   1.407       .  A
C1189      C1190   1.395       .  A
C1189      H1192   1.083       .  S
C1190     Br1196   1.920       .  S
C1197      C1198   1.420       .  A
C1197      C1202   1.408       .  A
C1198      C1199   1.401       .  A
C1198     Br1214   1.922       .  S
C1199      C1200   1.399       .  A
C1199      H1203   1.084       .  S
C1200      C1204   1.467       .  S
C1200      C1201   1.401       .  A
C1201      C1202   1.391       .  A
C1201     Br1213   1.920       .  S
C1202      H1205   1.083       .  S
C1204      C1206   1.398       .  A
C1204      C1210   1.404       .  A
C1206      C1207   1.395       .  A
C1206      H1211   1.084       .  S
C1207      C1208   1.416       .  A
C1207     Br1215   1.921       .  S
C1208      C1209   1.407       .  A
C1209      C1210   1.397       .  A
C1209      H1212   1.083       .  S
C1210     Br1216   1.918       .  S
C1217      C1218   1.413       .  A
C1217      C1222   1.405       .  A
C1218      C1219   1.400       .  A
C1218     Br1234   1.921       .  S
C1219      C1220   1.402       .  A
C1219      H1223   1.084       .  S
C1220      C1224   1.478       .  S
C1220      C1221   1.407       .  A
C1221      C1222   1.399       .  A
C1221     Br1233   1.918       .  S
C1222      H1225   1.083       .  S
C1224      C1226   1.400       .  A
C1224      C1230   1.404       .  A
C1226      C1227   1.402       .  A
C1226      H1231   1.083       .  S
C1227      C1228   1.419       .  A
C1227     Br1235   1.920       .  S
C1228      C1229   1.411       .  A
C1229      C1230   1.397       .  A
C1229      H1232   1.083       .  S
C1230     Br1236   1.920       .  S
C1237      C1238   1.417       .  A
C1237      C1242   1.409       .  A
C1238      C1239   1.400       .  A
C1238     Br1254   1.917       .  S
C1239      C1240   1.399       .  A
C1239      H1243   1.084       .  S
C1240      C1244   1.474       .  S
C1240      C1241   1.404       .  A
C1241      C1242   1.396       .  A
C1241     Br1253   1.920       .  S
C1242      H1245   1.083       .  S
C1244      C1246   1.400       .  A
C1244      C1250   1.407       .  A
C1246      C1247   1.397       .  A
C1246      H1251   1.084       .  S
C1247      C1248   1.414       .  A
C1247     Br1255   1.923       .  S
C1248      C1249   1.405       .  A
C1249      C1250   1.398       .  A
C1249      H1252   1.083       .  S
C1250     Br1256   1.918       .  S
C1257      C1258   1.421       .  A
C1257      C1262   1.409       .  A
C1258      C1259   1.399       .  A
C1258     Br1274   1.923       .  S
C1259      C1260   1.398       .  A
C1259      H1263   1.083       .  S
C1260      C1264   1.473       .  S
C1260      C1261   1.404       .  A
C1261      C1262   1.398       .  A
C1261     Br1273   1.920       .  S
C1262      H1265   1.083       .  S
C1264      C1266   1.399       .  A
C1264      C1270   1.406       .  A
C1266      C1267   1.396       .  A
C1266      H1271   1.084       .  S
C1267      C1268   1.415       .  A
C1267     Br1275   1.923       .  S
C1268      C1269   1.406       .  A
C1269      C1270   1.399       .  A
C1269      H1272   1.083       .  S
C1270     Br1276   1.918       .  S
C1277      C1278   1.409       .  A
C1277      C1282   1.406       .  A
C1278      C1279   1.398       .  A
C1278     Br1294   1.918       .  S
C1279      C1280   1.404       .  A
C1279      H1283   1.083       .  S
C1280      C1284   1.476       .  S
C1280      C1281   1.407       .  A
C1281      C1282   1.395       .  A
C1281     Br1293   1.921       .  S
C1282      H1285   1.084       .  S
C1284      C1286   1.399       .  A
C1284      C1290   1.408       .  A
C1286      C1287   1.394       .  A
C1286      H1291   1.084       .  S
C1287      C1288   1.416       .  A
C1287     Br1295   1.924       .  S
C1288      C1289   1.407       .  A
C1289      C1290   1.400       .  A
C1289      H1292   1.083       .  S
C1290     Br1296   1.920       .  S
C1297      C1298   1.418       .  A
C1297      C1302   1.406       .  A
C1298      C1299   1.402       .  A
C1298     Br1314   1.923       .  S
C1299      C1300   1.403       .  A
C1299      H1303   1.084       .  S
C1300      C1304   1.484       .  S
C1300      C1301   1.408       .  A
C1301      C1302   1.397       .  A
C1301     Br1313   1.920       .  S
C1302      H1305   1.083       .  S
C1304      C1306   1.401       .  A
C1304      C1310   1.409       .  A
C1306      C1307   1.396       .  A
C1306      H1311   1.084       .  S
C1307      C1308   1.414       .  A
C1307     Br1315   1.920       .  S
C1308      C1309   1.406       .  A
C1309      C1310   1.404       .  A
C1309      H1312   1.083       .  S
C1310     Br1316   1.918       .  S
C1317      C1318   1.417       .  A
C1317      C1322   1.409       .  A
C1318      C1319   1.401       .  A
C1318     Br1334   1.922       .  S
C1319      C1320   1.401       .  A
C1319      H1323   1.084       .  S
C1320      C1324   1.477       .  S
C1320      C1321   1.405       .  A
C1321      C1322   1.398       .  A
C1321     Br1333   1.919       .  S
C1322      H1325   1.084       .  S
C1324      C1326   1.400       .  A
C1324      C1330   1.405       .  A
C1326      C1327   1.399       .  A
C1326      H1331   1.084       .  S
C1327      C1328   1.418       .  A
C1327     Br1335   1.922       .  S
C1328      C1329   1.410       .  A
C1329      C1330   1.400       .  A
C1329      H1332   1.083       .  S
C1330     Br1336   1.918       .  S
C1337      C1338   1.411       .  A
C1337      C1342   1.405       .  A
C1338      C1339   1.397       .  A
C1338     Br1354   1.919       .  S
C1339      C1340   1.402       .  A
C1339      H1343   1.084       .  S
C1340      C1344   1.480       .  S
C1340      C1341   1.408       .  A
C1341      C1342   1.402       .  A
C1341     Br1353   1.918       .  S
C1342      H1345   1.083       .  S
C1344      C1346   1.404       .  A
C1344      C1350   1.405       .  A
C1346      C1347   1.405       .  A
C1346      H1351   1.083       .  S
C1347      C1348   1.416       .  A
C1347     Br1355   1.919       .  S
C1348      C1349   1.407       .  A
C1349      C1350   1.393       .  A
C1349      H1352   1.083       .  S
C1350     Br1356   1.921       .  S
C1357      C1358   1.416       .  A
C1357      C1362   1.409       .  A
C1358      C1359   1.396       .  A
C1358     Br1374   1.923       .  S
C1359      C1360   1.401       .  A
C1359      H1363   1.084       .  S
C1360      C1364   1.489       .  S
C1360      C1361   1.411       .  A
C1361      C1362   1.407       .  A
C1361     Br1373   1.918       .  S
C1362      H1365   1.084       .  S
C1364      C1366   1.403       .  A
C1364      C1370   1.411       .  A
C1366      C1367   1.403       .  A
C1366      H1371   1.083       .  S
C1367      C1368   1.415       .  A
C1367     Br1375   1.920       .  S
C1368      C1369   1.404       .  A
C1369      C1370   1.401       .  A
C1369      H1372   1.083       .  S
C1370     Br1376   1.919       .  S
C1377      C1378   1.418       .  A
C1377      C1382   1.408       .  A
C1378      C1379   1.405       .  A
C1378     Br1394   1.919       .  S
C1379      C1380   1.402       .  A
C1379      H1383   1.083       .  S
C1380      C1384   1.482       .  S
C1380      C1381   1.406       .  A
C1381      C1382   1.397       .  A
C1381     Br1393   1.920       .  S
C1382      H1385   1.083       .  S
C1384      C1386   1.402       .  A
C1384      C1390   1.406       .  A
C1386      C1387   1.402       .  A
C1386      H1391   1.083       .  S
C1387      C1388   1.416       .  A
C1387     Br1395   1.921       .  S
C1388      C1389   1.408       .  A
C1389      C1390   1.400       .  A
C1389      H1392   1.083       .  S
C1390     Br1396   1.919       .  S
C1397      C1398   1.416       .  A
C1397      C1402   1.408       .  A
C1398      C1399   1.402       .  A
C1398     Br1414   1.920       .  S
C1399      C1400   1.402       .  A
C1399      H1403   1.083       .  S
C1400      C1404   1.479       .  S
C1400      C1401   1.406       .  A
C1401      C1402   1.396       .  A
C1401     Br1413   1.921       .  S
C1402      H1405   1.083       .  S
C1404      C1406   1.403       .  A
C1404      C1410   1.409       .  A
C1406      C1407   1.399       .  A
C1406      H1411   1.083       .  S
C1407      C1408   1.410       .  A
C1407     Br1415   1.922       .  S
C1408      C1409   1.402       .  A
C1409      C1410   1.399       .  A
C1409      H1412   1.083       .  S
C1410     Br1416   1.918       .  S
C1417      C1418   1.415       .  A
C1417      C1422   1.407       .  A
C1418      C1419   1.404       .  A
C1418     Br1434   1.920       .  S
C1419      C1420   1.405       .  A
C1419      H1423   1.083       .  S
C1420      C1424   1.484       .  S
C1420      C1421   1.406       .  A
C1421      C1422   1.395       .  A
C1421     Br1433   1.920       .  S
C1422      H1425   1.083       .  S
C1424      C1426   1.405       .  A
C1424      C1430   1.407       .  A
C1426      C1427   1.401       .  A
C1426      H1431   1.084       .  S
C1427      C1428   1.412       .  A
C1427     Br1435   1.920       .  S
C1428      C1429   1.408       .  A
C1429      C1430   1.398       .  A
C1429      H1432   1.083       .  S
C1430     Br1436   1.919       .  S
C1437      C1438   1.414       .  A
C1437      C1442   1.407       .  A
C1438      C1439   1.398       .  A
C1438     Br1454   1.922       .  S
C1439      C1440   1.400       .  A
C1439      H1443   1.083       .  S
C1440      C1444   1.478       .  S
C1440      C1441   1.407       .  A
C1441      C1442   1.402       .  A
C1441     Br1453   1.917       .  S
C1442      H1445   1.083       .  S
C1444      C1446   1.400       .  A
C1444      C1450   1.403       .  A
C1446      C1447   1.402       .  A
C1446      H1451   1.083       .  S
C1447      C1448   1.419       .  A
C1447     Br1455   1.921       .  S
C1448      C1449   1.412       .  A
C1449      C1450   1.398       .  A
C1449      H1452   1.083       .  S
C1450     Br1456   1.920       .  S
C1457      C1458   1.410       .  A
C1457      C1462   1.403       .  A
C1458      C1459   1.399       .  A
C1458     Br1474   1.919       .  S
C1459      C1460   1.402       .  A
C1459      H1463   1.083       .  S
C1460      C1464   1.476       .  S
C1460      C1461   1.408       .  A
C1461      C1462   1.396       .  A
C1461     Br1473   1.920       .  S
C1462      H1465   1.084       .  S
C1464      C1466   1.399       .  A
C1464      C1470   1.406       .  A
C1466      C1467   1.395       .  A
C1466      H1471   1.084       .  S
C1467      C1468   1.417       .  A
C1467     Br1475   1.923       .  S
C1468      C1469   1.409       .  A
C1469      C1470   1.400       .  A
C1469      H1472   1.084       .  S
C1470     Br1476   1.918       .  S
C1477      C1478   1.412       .  A
C1477      C1482   1.406       .  A
C1478      C1479   1.396       .  A
C1478     Br1494   1.921       .  S
C1479      C1480   1.402       .  A
C1479      H1483   1.083       .  S
C1480      C1484   1.486       .  S
C1480      C1481   1.411       .  A
C1481      C1482   1.406       .  A
C1481     Br1493   1.917       .  S
C1482      H1485   1.083       .  S
C1484      C1486   1.403       .  A
C1484      C1490   1.408       .  A
C1486      C1487   1.405       .  A
C1486      H1491   1.083       .  S
C1487      C1488   1.419       .  A
C1487     Br1495   1.921       .  S
C1488      C1489   1.408       .  A
C1489      C1490   1.398       .  A
C1489      H1492   1.084       .  S
C1490     Br1496   1.921       .  S
C1497      C1498   1.412       .  A
C1497      C1502   1.407       .  A
C1498      C1499   1.402       .  A
C1498     Br1514   1.919       .  S
C1499      C1500   1.403       .  A
C1499      H1503   1.083       .  S
C1500      C1504   1.481       .  S
C1500      C1501   1.407       .  A
C1501      C1502   1.400       .  A
C1501     Br1513   1.919       .  S
C1502      H1505   1.083       .  S
C1504      C1506   1.400       .  A
C1504      C1510   1.407       .  A
C1506      C1507   1.398       .  A
C1506      H1511   1.084       .  S
C1507      C1508   1.416       .  A
C1507     Br1515   1.922       .  S
C1508      C1509   1.409       .  A
C1509      C1510   1.403       .  A
C1509      H1512   1.083       .  S
C1510     Br1516   1.917       .  S
C1517      C1518   1.417       .  A
C1517      C1522   1.409       .  A
C1518      C1519   1.398       .  A
C1518     Br1534   1.923       .  S
C1519      C1520   1.399       .  A
C1519      H1523   1.084       .  S
C1520      C1524   1.476       .  S
C1520      C1521   1.404       .  A
C1521      C1522   1.400       .  A
C1521     Br1533   1.917       .  S
C1522      H1525   1.083       .  S
C1524      C1526   1.401       .  A
C1524      C1530   1.406       .  A
C1526      C1527   1.399       .  A
C1526      H1531   1.083       .  S
C1527      C1528   1.413       .  A
C1527     Br1535   1.921       .  S
C1528      C1529   1.405       .  A
C1529      C1530   1.399       .  A
C1529      H1532   1.084       .  S
C1530     Br1536   1.918       .  S
C1537      C1538   1.414       .  A
C1537      C1542   1.406       .  A
C1538      C1539   1.395       .  A
C1538     Br1554   1.922       .  S
C1539      C1540   1.399       .  A
C1539      H1543   1.084       .  S
C1540      C1544   1.476       .  S
C1540      C1541   1.408       .  A
C1541      C1542   1.401       .  A
C1541     Br1553   1.919       .  S
C1542      H1545   1.083       .  S
C1544      C1546   1.404       .  A
C1544      C1550   1.406       .  A
C1546      C1547   1.402       .  A
C1546      H1551   1.084       .  S
C1547      C1548   1.414       .  A
C1547     Br1555   1.920       .  S
C1548      C1549   1.407       .  A
C1549      C1550   1.394       .  A
C1549      H1552   1.084       .  S
C1550     Br1556   1.922       .  S
C1557      C1558   1.419       .  A
C1557      C1562   1.408       .  A
C1558      C1559   1.401       .  A
C1558     Br1574   1.922       .  S
C1559      C1560   1.400       .  A
C1559      H1563   1.084       .  S
C1560      C1564   1.478       .  S
C1560      C1561   1.405       .  A
C1561      C1562   1.396       .  A
C1561     Br1573   1.920       .  S
C1562      H1565   1.083       .  S
C1564      C1566   1.401       .  A
C1564      C1570   1.408       .  A
C1566      C1567   1.396       .  A
C1566      H1571   1.084       .  S
C1567      C1568   1.412       .  A
C1567     Br1575   1.922       .  S
C1568      C1569   1.404       .  A
C1569      C1570   1.402       .  A
C1569      H1572   1.083       .  S
C1570     Br1576   1.917       .  S
C1577      C1578   1.415       .  A
C1577      C1582   1.409       .  A
C1578      C1579   1.403       .  A
C1578     Br1594   1.920       .  S
C1579      C1580   1.404       .  A
C1579      H1583   1.084       .  S
C1580      C1584   1.482       .  S
C1580      C1581   1.407       .  A
C1581      C1582   1.398       .  A
C1581     Br1593   1.921       .  S
C1582      H1585   1.083       .  S
C1584      C1586   1.399       .  A
C1584      C1590   1.411       .  A
C1586      C1587   1.394       .  A
C1586      H1591   1.083       .  S
C1587      C1588   1.416       .  A
C1587     Br1595   1.924       .  S
C1588      C1589   1.407       .  A
C1589      C1590   1.406       .  A
C1589      H1592   1.083       .  S
C1590     Br1596   1.918       .  S
C1597      C1598   1.413       .  A
C1597      C1602   1.404       .  A
C1598      C1599   1.400       .  A
C1598     Br1614   1.922       .  S
C1599      C1600   1.402       .  A
C1599      H1603   1.083       .  S
C1600      C1604   1.479       .  S
C1600      C1601   1.407       .  A
C1601      C1602   1.401       .  A
C1601     Br1613   1.917       .  S
C1602      H1605   1.083       .  S
C1604      C1606   1.399       .  A
C1604      C1610   1.405       .  A
C1606      C1607   1.403       .  A
C1606      H1611   1.084       .  S
C1607      C1608   1.421       .  A
C1607     Br1615   1.922       .  S
C1608      C1609   1.409       .  A
C1609      C1610   1.398       .  A
C1609      H1612   1.083       .  S
C1610     Br1616   1.919       .  S
C1617      C1618   1.421       .  A
C1617      C1622   1.408       .  A
C1618      C1619   1.406       .  A
C1618     Br1634   1.922       .  S
C1619      C1620   1.405       .  A
C1619      H1623   1.084       .  S
C1620      C1624   1.502       .  S
C1620      C1621   1.413       .  A
C1621      C1622   1.407       .  A
C1621     Br1633   1.918       .  S
C1622      H1625   1.084       .  S
C1624      C1626   1.401       .  A
C1624      C1630   1.413       .  A
C1626      C1627   1.404       .  A
C1626      H1631   1.084       .  S
C1627      C1628   1.424       .  A
C1627     Br1635   1.924       .  S
C1628      C1629   1.412       .  A
C1629      C1630   1.410       .  A
C1629      H1632   1.083       .  S
C1630     Br1636   1.918       .  S
C1637      C1638   1.415       .  A
C1637      C1642   1.407       .  A
C1638      C1639   1.401       .  A
C1638     Br1654   1.921       .  S
C1639      C1640   1.403       .  A
C1639      H1643   1.083       .  S
C1640      C1644   1.489       .  S
C1640      C1641   1.410       .  A
C1641      C1642   1.402       .  A
C1641     Br1653   1.919       .  S
C1642      H1645   1.083       .  S
C1644      C1646   1.405       .  A
C1644      C1650   1.410       .  A
C1646      C1647   1.402       .  A
C1646      H1651   1.083       .  S
C1647      C1648   1.413       .  A
C1647     Br1655   1.920       .  S
C1648      C1649   1.406       .  A
C1649      C1650   1.401       .  A
C1649      H1652   1.083       .  S
C1650     Br1656   1.919       .  S
C1657      C1658   1.412       .  A
C1657      C1662   1.408       .  A
C1658      C1659   1.403       .  A
C1658     Br1674   1.920       .  S
C1659      C1660   1.405       .  A
C1659      H1663   1.077       .  S
C1660      C1664   1.485       .  S
C1660      C1661   1.407       .  A
C1661      C1662   1.401       .  A
C1661     Br1673   1.918       .  S
C1662      H1665   1.076       .  S
C1664      C1666   1.402       .  A
C1664      C1670   1.406       .  A
C1666      C1667   1.402       .  A
C1666      H1671   1.082       .  S
C1667      C1668   1.416       .  A
C1667     Br1675   1.919       .  S
C1668      C1669   1.410       .  A
C1669      C1670   1.401       .  A
C1669      H1672   1.082       .  S
C1670     Br1676   1.918       .  S
C1677      C1678   1.417       .  A
C1677      C1682   1.412       .  A
C1678      C1679   1.409       .  A
C1678     Br1694   1.919       .  S
C1679      C1680   1.405       .  A
C1679      H1683   1.083       .  S
C1680      C1684   1.486       .  S
C1680      C1681   1.403       .  A
C1681      C1682   1.397       .  A
C1681     Br1693   1.920       .  S
C1682      H1685   1.083       .  S
C1684      C1686   1.403       .  A
C1684      C1690   1.407       .  A
C1686      C1687   1.406       .  A
C1686      H1691   1.083       .  S
C1687      C1688   1.418       .  A
C1687     Br1695   1.920       .  S
C1688      C1689   1.408       .  A
C1689      C1690   1.400       .  A
C1689      H1692   1.083       .  S
C1690     Br1696   1.915       .  S
C1697      C1698   1.412       .  A
C1697      C1702   1.406       .  A
C1698      C1699   1.402       .  A
C1698     Br1714   1.921       .  S
C1699      C1700   1.404       .  A
C1699      H1703   1.084       .  S
C1700      C1704   1.484       .  S
C1700      C1701   1.409       .  A
C1701      C1702   1.399       .  A
C1701     Br1713   1.920       .  S
C1702      H1705   1.084       .  S
C1704      C1706   1.399       .  A
C1704      C1710   1.408       .  A
C1706      C1707   1.398       .  A
C1706      H1711   1.084       .  S
C1707      C1708   1.421       .  A
C1707     Br1715   1.924       .  S
C1708      C1709   1.409       .  A
C1709      C1710   1.403       .  A
C1709      H1712   1.083       .  S
C1710     Br1716   1.918       .  S
C1717      C1718   1.419       .  A
C1717      C1722   1.408       .  A
C1718      C1719   1.404       .  A
C1718     Br1734   1.923       .  S
C1719      C1720   1.404       .  A
C1719      H1723   1.084       .  S
C1720      C1724   1.496       .  S
C1720      C1721   1.412       .  A
C1721      C1722   1.406       .  A
C1721     Br1733   1.918       .  S
C1722      H1725   1.083       .  S
C1724      C1726   1.400       .  A
C1724      C1730   1.411       .  A
C1726      C1727   1.402       .  A
C1726      H1731   1.084       .  S
C1727      C1728   1.425       .  A
C1727     Br1735   1.924       .  S
C1728      C1729   1.410       .  A
C1729      C1730   1.407       .  A
C1729      H1732   1.083       .  S
C1730     Br1736   1.918       .  S
C1737      C1738   1.414       .  A
C1737      C1742   1.406       .  A
C1738      C1739   1.405       .  A
C1738     Br1754   1.921       .  S
C1739      C1740   1.406       .  A
C1739      H1743   1.084       .  S
C1740      C1744   1.493       .  S
C1740      C1741   1.410       .  A
C1741      C1742   1.402       .  A
C1741     Br1753   1.919       .  S
C1742      H1745   1.083       .  S
C1744      C1746   1.403       .  A
C1744      C1750   1.411       .  A
C1746      C1747   1.401       .  A
C1746      H1751   1.084       .  S
C1747      C1748   1.418       .  A
C1747     Br1755   1.922       .  S
C1748      C1749   1.408       .  A
C1749      C1750   1.405       .  A
C1749      H1752   1.083       .  S
C1750     Br1756   1.918       .  S
C1757      C1758   1.413       .  A
C1757      C1762   1.405       .  A
C1758      C1759   1.398       .  A
C1758     Br1774   1.919       .  S
C1759      C1760   1.399       .  A
C1759      H1763   1.083       .  S
C1760      C1764   1.478       .  S
C1760      C1761   1.408       .  A
C1761      C1762   1.402       .  A
C1761     Br1773   1.916       .  S
C1762      H1765   1.083       .  S
C1764      C1766   1.401       .  A
C1764      C1770   1.403       .  A
C1766      C1767   1.404       .  A
C1766      H1771   1.083       .  S
C1767      C1768   1.420       .  A
C1767     Br1775   1.921       .  S
C1768      C1769   1.411       .  A
C1769      C1770   1.396       .  A
C1769      H1772   1.083       .  S
C1770     Br1776   1.920       .  S
C1777      C1778   1.413       .  A
C1777      C1782   1.407       .  A
C1778      C1779   1.401       .  A
C1778     Br1794   1.922       .  S
C1779      C1780   1.406       .  A
C1779      H1783   1.070       .  S
C1780      C1784   1.486       .  S
C1780      C1781   1.409       .  A
C1781      C1782   1.399       .  A
C1781     Br1793   1.921       .  S
C1782      H1785   1.072       .  S
C1784      C1786   1.403       .  A
C1784      C1790   1.411       .  A
C1786      C1787   1.399       .  A
C1786      H1791   1.075       .  S
C1787      C1788   1.417       .  A
C1787     Br1795   1.924       .  S
C1788      C1789   1.406       .  A
C1789      C1790   1.401       .  A
C1789      H1792   1.076       .  S
C1790     Br1796   1.920       .  S
C1797      C1798   1.419       .  A
C1797      C1802   1.409       .  A
C1798      C1799   1.401       .  A
C1798     Br1814   1.923       .  S
C1799      C1800   1.400       .  A
C1799      H1803   1.083       .  S
C1800      C1804   1.485       .  S
C1800      C1801   1.408       .  A
C1801      C1802   1.405       .  A
C1801     Br1813   1.918       .  S
C1802      H1805   1.083       .  S
C1804      C1806   1.405       .  A
C1804      C1810   1.404       .  A
C1806      C1807   1.409       .  A
C1806      H1811   1.083       .  S
C1807      C1808   1.417       .  A
C1807     Br1815   1.918       .  S
C1808      C1809   1.412       .  A
C1809      C1810   1.397       .  A
C1809      H1812   1.084       .  S
C1810     Br1816   1.920       .  S
C1817      C1818   1.416       .  A
C1817      C1822   1.408       .  A
C1818      C1819   1.409       .  A
C1818     Br1834   1.919       .  S
C1819      C1820   1.408       .  A
C1819      H1823   1.084       .  S
C1820      C1824   1.505       .  S
C1820      C1821   1.414       .  A
C1821      C1822   1.405       .  A
C1821     Br1833   1.920       .  S
C1822      H1825   1.084       .  S
C1824      C1826   1.407       .  A
C1824      C1830   1.412       .  A
C1826      C1827   1.409       .  A
C1826      H1831   1.084       .  S
C1827      C1828   1.420       .  A
C1827     Br1835   1.920       .  S
C1828      C1829   1.412       .  A
C1829      C1830   1.406       .  A
C1829      H1832   1.083       .  S
C1830     Br1836   1.920       .  S
C1837      C1838   1.417       .  A
C1837      C1842   1.408       .  A
C1838      C1839   1.397       .  A
C1838     Br1854   1.924       .  S
C1839      C1840   1.400       .  A
C1839      H1843   1.084       .  S
C1840      C1844   1.485       .  S
C1840      C1841   1.410       .  A
C1841      C1842   1.404       .  A
C1841     Br1853   1.918       .  S
C1842      H1845   1.083       .  S
C1844      C1846   1.406       .  A
C1844      C1850   1.409       .  A
C1846      C1847   1.403       .  A
C1846      H1851   1.083       .  S
C1847      C1848   1.413       .  A
C1847     Br1855   1.920       .  S
C1848      C1849   1.406       .  A
C1849      C1850   1.397       .  A
C1849      H1852   1.084       .  S
C1850     Br1856   1.920       .  S
C1857      C1858   1.414       .  A
C1857      C1862   1.406       .  A
C1858      C1859   1.396       .  A
C1858     Br1874   1.921       .  S
C1859      C1860   1.400       .  A
C1859      H1863   1.084       .  S
C1860      C1864   1.466       .  S
C1860      C1861   1.404       .  A
C1861      C1862   1.392       .  A
C1861     Br1873   1.920       .  S
C1862      H1865   1.083       .  S
C1864      C1866   1.401       .  A
C1864      C1870   1.406       .  A
C1866      C1867   1.397       .  A
C1866      H1871   1.084       .  S
C1867      C1868   1.412       .  A
C1867     Br1875   1.922       .  S
C1868      C1869   1.401       .  A
C1869      C1870   1.392       .  A
C1869      H1872   1.084       .  S
C1870     Br1876   1.920       .  S
C1877      C1878   1.420       .  A
C1877      C1882   1.411       .  A
C1878      C1879   1.402       .  A
C1878     Br1894   1.921       .  S
C1879      C1880   1.400       .  A
C1879      H1883   1.083       .  S
C1880      C1884   1.478       .  S
C1880      C1881   1.404       .  A
C1881      C1882   1.398       .  A
C1881     Br1893   1.920       .  S
C1882      H1885   1.083       .  S
C1884      C1886   1.398       .  A
C1884      C1890   1.407       .  A
C1886      C1887   1.396       .  A
C1886      H1891   1.084       .  S
C1887      C1888   1.417       .  A
C1887     Br1895   1.924       .  S
C1888      C1889   1.408       .  A
C1889      C1890   1.404       .  A
C1889      H1892   1.083       .  S
C1890     Br1896   1.916       .  S
C1897      C1898   1.417       .  A
C1897      C1902   1.409       .  A
C1898      C1899   1.398       .  A
C1898     Br1914   1.922       .  S
C1899      C1900   1.399       .  A
C1899      H1903   1.084       .  S
C1900      C1904   1.466       .  S
C1900      C1901   1.402       .  A
C1901      C1902   1.392       .  A
C1901     Br1913   1.920       .  S
C1902      H1905   1.083       .  S
C1904      C1906   1.400       .  A
C1904      C1910   1.404       .  A
C1906      C1907   1.393       .  A
C1906      H1911   1.084       .  S
C1907      C1908   1.409       .  A
C1907     Br1915   1.922       .  S
C1908      C1909   1.406       .  A
C1909      C1910   1.398       .  A
C1909      H1912   1.084       .  S
C1910     Br1916   1.918       .  S
C1917      C1918   1.415       .  A
C1917      C1922   1.408       .  A
C1918      C1919   1.409       .  A
C1918     Br1934   1.919       .  S
C1919      C1920   1.406       .  A
C1919      H1923   1.084       .  S
C1920      C1924   1.500       .  S
C1920      C1921   1.411       .  A
C1921      C1922   1.406       .  A
C1921     Br1933   1.918       .  S
C1922      H1925   1.084       .  S
C1924      C1926   1.406       .  A
C1924      C1930   1.408       .  A
C1926      C1927   1.411       .  A
C1926      H1931   1.083       .  S
C1927      C1928   1.421       .  A
C1927     Br1935   1.920       .  S
C1928      C1929   1.414       .  A
C1929      C1930   1.405       .  A
C1929      H1932   1.083       .  S
C1930     Br1936   1.919       .  S
C1937      C1938   1.423       .  A
C1937      C1942   1.411       .  A
C1938      C1939   1.403       .  A
C1938     Br1954   1.924       .  S
C1939      C1940   1.400       .  A
C1939      H1943   1.084       .  S
C1940      C1944   1.489       .  S
C1940      C1941   1.407       .  A
C1941      C1942   1.405       .  A
C1941     Br1953   1.918       .  S
C1942      H1945   1.083       .  S
C1944      C1946   1.404       .  A
C1944      C1950   1.408       .  A
C1946      C1947   1.404       .  A
C1946      H1951   1.083       .  S
C1947      C1948   1.415       .  A
C1947     Br1955   1.921       .  S
C1948      C1949   1.407       .  A
C1949      C1950   1.404       .  A
C1949      H1952   1.083       .  S
C1950     Br1956   1.918       .  S
C1957      C1958   1.423       .  A
C1957      C1962   1.410       .  A
C1958      C1959   1.400       .  A
C1958     Br1974   1.924       .  S
C1959      C1960   1.399       .  A
C1959      H1963   1.083       .  S
C1960      C1964   1.485       .  S
C1960      C1961   1.407       .  A
C1961      C1962   1.405       .  A
C1961     Br1973   1.917       .  S
C1962      H1965   1.083       .  S
C1964      C1966   1.406       .  A
C1964      C1970   1.406       .  A
C1966      C1967   1.408       .  A
C1966      H1971   1.083       .  S
C1967      C1968   1.413       .  A
C1967     Br1975   1.918       .  S
C1968      C1969   1.408       .  A
C1969      C1970   1.397       .  A
C1969      H1972   1.084       .  S
C1970     Br1976   1.920       .  S
C1977      C1978   1.421       .  A
C1977      C1982   1.408       .  A
C1978      C1979   1.403       .  A
C1978     Br1994   1.923       .  S
C1979      C1980   1.402       .  A
C1979      H1983   1.083       .  S
C1980      C1984   1.491       .  S
C1980      C1981   1.409       .  A
C1981      C1982   1.405       .  A
C1981     Br1993   1.918       .  S
C1982      H1985   1.083       .  S
C1984      C1986   1.405       .  A
C1984      C1990   1.409       .  A
C1986      C1987   1.404       .  A
C1986      H1991   1.084       .  S
C1987      C1988   1.414       .  A
C1987     Br1995   1.919       .  S
C1988      C1989   1.408       .  A
C1989      C1990   1.404       .  A
C1989      H1992   1.083       .  S
C1990     Br1996   1.918       .  S
C1997      C1998   1.413       .  A
C1997      C2002   1.406       .  A
C1998      C1999   1.406       .  A
C1998     Br2014   1.920       .  S
C1999      C2000   1.407       .  A
C1999      H2003   1.083       .  S
C2000      C2004   1.492       .  S
C2000      C2001   1.410       .  A
C2001      C2002   1.401       .  A
C2001     Br2013   1.920       .  S
C2002      H2005   1.083       .  S
C2004      C2006   1.403       .  A
C2004      C2010   1.411       .  A
C2006      C2007   1.400       .  A
C2006      H2011   1.084       .  S
C2007      C2008   1.416       .  A
C2007     Br2015   1.922       .  S
C2008      C2009   1.408       .  A
C2009      C2010   1.406       .  A
C2009      H2012   1.083       .  S
C2010     Br2016   1.918       .  S
C2017      C2018   1.419       .  A
C2017      C2022   1.413       .  A
C2018      C2019   1.409       .  A
C2018     Br2034   1.918       .  S
C2019      C2020   1.406       .  A
C2019      H2023   1.083       .  S
C2020      C2024   1.491       .  S
C2020      C2021   1.405       .  A
C2021      C2022   1.399       .  A
C2021     Br2033   1.920       .  S
C2022      H2025   1.083       .  S
C2024      C2026   1.405       .  A
C2024      C2030   1.409       .  A
C2026      C2027   1.405       .  A
C2026      H2031   1.084       .  S
C2027      C2028   1.416       .  A
C2027     Br2035   1.920       .  S
C2028      C2029   1.407       .  A
C2029      C2030   1.402       .  A
C2029      H2032   1.084       .  S
C2030     Br2036   1.919       .  S
C2037      C2038   1.411       .  A
C2037      C2042   1.404       .  A
C2038      C2039   1.403       .  A
C2038     Br2054   1.917       .  S
C2039      C2040   1.405       .  A
C2039      H2043   1.083       .  S
C2040      C2044   1.481       .  S
C2040      C2041   1.410       .  A
C2041      C2042   1.394       .  A
C2041     Br2053   1.922       .  S
C2042      H2045   1.084       .  S
C2044      C2046   1.403       .  A
C2044      C2050   1.412       .  A
C2046      C2047   1.397       .  A
C2046      H2051   1.084       .  S
C2047      C2048   1.409       .  A
C2047     Br2055   1.921       .  S
C2048      C2049   1.400       .  A
C2049      C2050   1.399       .  A
C2049      H2052   1.084       .  S
C2050     Br2056   1.919       .  S
C2057      C2058   1.419       .  A
C2057      C2062   1.410       .  A
C2058      C2059   1.397       .  A
C2058     Br2074   1.923       .  S
C2059      C2060   1.398       .  A
C2059      H2063   1.083       .  S
C2060      C2064   1.475       .  S
C2060      C2061   1.404       .  A
C2061      C2062   1.400       .  A
C2061     Br2073   1.917       .  S
C2062      H2065   1.082       .  S
C2064      C2066   1.400       .  A
C2064      C2070   1.405       .  A
C2066      C2067   1.401       .  A
C2066      H2071   1.084       .  S
C2067      C2068   1.416       .  A
C2067     Br2075   1.921       .  S
C2068      C2069   1.408       .  A
C2069      C2070   1.397       .  A
C2069      H2072   1.084       .  S
C2070     Br2076   1.921       .  S
C2077      C2078   1.411       .  A
C2077      C2082   1.406       .  A
C2078      C2079   1.399       .  A
C2078     Br2094   1.919       .  S
C2079      C2080   1.403       .  A
C2079      H2083   1.084       .  S
C2080      C2084   1.475       .  S
C2080      C2081   1.406       .  A
C2081      C2082   1.395       .  A
C2081     Br2093   1.920       .  S
C2082      H2085   1.084       .  S
C2084      C2086   1.397       .  A
C2084      C2090   1.406       .  A
C2086      C2087   1.394       .  A
C2086      H2091   1.084       .  S
C2087      C2088   1.421       .  A
C2087     Br2095   1.924       .  S
C2088      C2089   1.408       .  A
C2089      C2090   1.402       .  A
C2089      H2092   1.083       .  S
C2090     Br2096   1.918       .  S
C2097      C2098   1.416       .  A
C2097      C2102   1.407       .  A
C2098      C2099   1.395       .  A
C2098     Br2114   1.924       .  S
C2099      C2100   1.399       .  A
C2099      H2103   1.083       .  S
C2100      C2104   1.472       .  S
C2100      C2101   1.404       .  A
C2101      C2102   1.399       .  A
C2101     Br2113   1.917       .  S
C2102      H2105   1.083       .  S
C2104      C2106   1.399       .  A
C2104      C2110   1.409       .  A
C2106      C2107   1.395       .  A
C2106      H2111   1.084       .  S
C2107      C2108   1.411       .  A
C2107     Br2115   1.922       .  S
C2108      C2109   1.402       .  A
C2109      C2110   1.400       .  A
C2109      H2112   1.084       .  S
C2110     Br2116   1.918       .  S
C2117      C2118   1.422       .  A
C2117      C2122   1.411       .  A
C2118      C2119   1.412       .  A
C2118     Br2134   1.920       .  S
C2119      C2120   1.405       .  A
C2119      H2123   1.083       .  S
C2120      C2124   1.503       .  S
C2120      C2121   1.409       .  A
C2121      C2122   1.408       .  A
C2121     Br2133   1.915       .  S
C2122      H2125   1.083       .  S
C2124      C2126   1.408       .  A
C2124      C2130   1.409       .  A
C2126      C2127   1.414       .  A
C2126      H2131   1.083       .  S
C2127      C2128   1.417       .  A
C2127     Br2135   1.917       .  S
C2128      C2129   1.412       .  A
C2129      C2130   1.406       .  A
C2129      H2132   1.084       .  S
C2130     Br2136   1.919       .  S
C2137      C2138   1.410       .  A
C2137      C2142   1.404       .  A
C2138      C2139   1.402       .  A
C2138     Br2154   1.921       .  S
C2139      C2140   1.406       .  A
C2139      H2143   1.083       .  S
C2140      C2144   1.488       .  S
C2140      C2141   1.410       .  A
C2141      C2142   1.401       .  A
C2141     Br2153   1.919       .  S
C2142      H2145   1.084       .  S
C2144      C2146   1.403       .  A
C2144      C2150   1.410       .  A
C2146      C2147   1.401       .  A
C2146      H2151   1.083       .  S
C2147      C2148   1.414       .  A
C2147     Br2155   1.921       .  S
C2148      C2149   1.405       .  A
C2149      C2150   1.402       .  A
C2149      H2152   1.083       .  S
C2150     Br2156   1.919       .  S
C2157      C2158   1.414       .  A
C2157      C2162   1.406       .  A
C2158      C2159   1.401       .  A
C2158     Br2174   1.921       .  S
C2159      C2160   1.402       .  A
C2159      H2163   1.083       .  S
C2160      C2164   1.486       .  S
C2160      C2161   1.410       .  A
C2161      C2162   1.403       .  A
C2161     Br2173   1.919       .  S
C2162      H2165   1.083       .  S
C2164      C2166   1.402       .  A
C2164      C2170   1.408       .  A
C2166      C2167   1.403       .  A
C2166      H2171   1.083       .  S
C2167      C2168   1.418       .  A
C2167     Br2175   1.922       .  S
C2168      C2169   1.406       .  A
C2169      C2170   1.400       .  A
C2169      H2172   1.083       .  S
C2170     Br2176   1.918       .  S
C2177      C2178   1.418       .  A
C2177      C2182   1.407       .  A
C2178      C2179   1.403       .  A
C2178     Br2194   1.923       .  S
C2179      C2180   1.403       .  A
C2179      H2183   1.084       .  S
C2180      C2184   1.487       .  S
C2180      C2181   1.408       .  A
C2181      C2182   1.400       .  A
C2181     Br2193   1.919       .  S
C2182      H2185   1.083       .  S
C2184      C2186   1.399       .  A
C2184      C2190   1.408       .  A
C2186      C2187   1.398       .  A
C2186      H2191   1.084       .  S
C2187      C2188   1.422       .  A
C2187     Br2195   1.924       .  S
C2188      C2189   1.410       .  A
C2189      C2190   1.404       .  A
C2189      H2192   1.083       .  S
C2190     Br2196   1.918       .  S
C2197      C2198   1.415       .  A
C2197      C2202   1.410       .  A
C2198      C2199   1.407       .  A
C2198     Br2214   1.920       .  S
C2199      C2200   1.406       .  A
C2199      H2203   1.083       .  S
C2200      C2204   1.496       .  S
C2200      C2201   1.409       .  A
C2201      C2202   1.406       .  A
C2201     Br2213   1.918       .  S
C2202      H2205   1.083       .  S
C2204      C2206   1.405       .  A
C2204      C2210   1.409       .  A
C2206      C2207   1.407       .  A
C2206      H2211   1.084       .  S
C2207      C2208   1.418       .  A
C2207     Br2215   1.919       .  S
C2208      C2209   1.410       .  A
C2209      C2210   1.405       .  A
C2209      H2212   1.084       .  S
C2210     Br2216   1.918       .  S
C2217      C2218   1.417       .  A
C2217      C2222   1.412       .  A
C2218      C2219   1.415       .  A
C2218     Br2234   1.918       .  S
C2219      C2220   1.409       .  A
C2219      H2223   1.084       .  S
C2220      C2224   1.502       .  S
C2220      C2221   1.407       .  A
C2221      C2222   1.404       .  A
C2221     Br2233   1.920       .  S
C2222      H2225   1.084       .  S
C2224      C2226   1.404       .  A
C2224      C2230   1.409       .  A
C2226      C2227   1.411       .  A
C2226      H2231   1.084       .  S
C2227      C2228   1.423       .  A
C2227     Br2235   1.921       .  S
C2228      C2229   1.412       .  A
C2229      C2230   1.408       .  A
C2229      H2232   1.083       .  S
C2230     Br2236   1.917       .  S
C2237      C2238   1.416       .  A
C2237      C2242   1.408       .  A
C2238      C2239   1.402       .  A
C2238     Br2254   1.920       .  S
C2239      C2240   1.402       .  A
C2239      H2243   1.083       .  S
C2240      C2244   1.478       .  S
C2240      C2241   1.406       .  A
C2241      C2242   1.396       .  A
C2241     Br2253   1.921       .  S
C2242      H2245   1.083       .  S
C2244      C2246   1.398       .  A
C2244      C2250   1.409       .  A
C2246      C2247   1.395       .  A
C2246      H2251   1.084       .  S
C2247      C2248   1.414       .  A
C2247     Br2255   1.922       .  S
C2248      C2249   1.406       .  A
C2249      C2250   1.403       .  A
C2249      H2252   1.083       .  S
C2250     Br2256   1.918       .  S
C2257      C2258   1.418       .  A
C2257      C2262   1.408       .  A
C2258      C2259   1.398       .  A
C2258     Br2274   1.923       .  S
C2259      C2260   1.399       .  A
C2259      H2263   1.084       .  S
C2260      C2264   1.468       .  S
C2260      C2261   1.404       .  A
C2261      C2262   1.392       .  A
C2261     Br2273   1.921       .  S
C2262      H2265   1.083       .  S
C2264      C2266   1.399       .  A
C2264      C2270   1.405       .  A
C2266      C2267   1.395       .  A
C2266      H2271   1.084       .  S
C2267      C2268   1.413       .  A
C2267     Br2275   1.922       .  S
C2268      C2269   1.406       .  A
C2269      C2270   1.395       .  A
C2269      H2272   1.084       .  S
C2270     Br2276   1.920       .  S
C2277      C2278   1.423       .  A
C2277      C2282   1.411       .  A
C2278      C2279   1.402       .  A
C2278     Br2294   1.924       .  S
C2279      C2280   1.401       .  A
C2279      H2283   1.084       .  S
C2280      C2284   1.499       .  S
C2280      C2281   1.412       .  A
C2281      C2282   1.409       .  A
C2281     Br2293   1.918       .  S
C2282      H2285   1.083       .  S
C2284      C2286   1.405       .  A
C2284      C2290   1.412       .  A
C2286      C2287   1.406       .  A
C2286      H2291   1.084       .  S
C2287      C2288   1.419       .  A
C2287     Br2295   1.922       .  S
C2288      C2289   1.407       .  A
C2289      C2290   1.406       .  A
C2289      H2292   1.084       .  S
C2290     Br2296   1.919       .  S
C2297      C2298   1.421       .  A
C2297      C2302   1.410       .  A
C2298      C2299   1.396       .  A
C2298     Br2314   1.925       .  S
C2299      C2300   1.397       .  A
C2299      H2303   1.084       .  S
C2300      C2304   1.479       .  S
C2300      C2301   1.406       .  A
C2301      C2302   1.405       .  A
C2301     Br2313   1.917       .  S
C2302      H2305   1.083       .  S
C2304      C2306   1.405       .  A
C2304      C2310   1.406       .  A
C2306      C2307   1.405       .  A
C2306      H2311   1.083       .  S
C2307      C2308   1.410       .  A
C2307     Br2315   1.919       .  S
C2308      C2309   1.404       .  A
C2309      C2310   1.396       .  A
C2309      H2312   1.084       .  S
C2310     Br2316   1.919       .  S
C2317      C2318   1.419       .  A
C2317      C2322   1.409       .  A
C2318      C2319   1.404       .  A
C2318     Br2334   1.921       .  S
C2319      C2320   1.401       .  A
C2319      H2323   1.083       .  S
C2320      C2324   1.478       .  S
C2320      C2321   1.405       .  A
C2321      C2322   1.393       .  A
C2321     Br2333   1.922       .  S
C2322      H2325   1.083       .  S
C2324      C2326   1.402       .  A
C2324      C2330   1.408       .  A
C2326      C2327   1.396       .  A
C2326      H2331   1.084       .  S
C2327      C2328   1.410       .  A
C2327     Br2335   1.921       .  S
C2328      C2329   1.404       .  A
C2329      C2330   1.401       .  A
C2329      H2332   1.084       .  S
C2330     Br2336   1.917       .  S
C2337      C2338   1.418       .  A
C2337      C2342   1.407       .  A
C2338      C2339   1.399       .  A
C2338     Br2354   1.921       .  S
C2339      C2340   1.398       .  A
C2339      H2343   1.083       .  S
C2340      C2344   1.467       .  S
C2340      C2341   1.403       .  A
C2341      C2342   1.393       .  A
C2341     Br2353   1.921       .  S
C2342      H2345   1.083       .  S
C2344      C2346   1.399       .  A
C2344      C2350   1.406       .  A
C2346      C2347   1.394       .  A
C2346      H2351   1.084       .  S
C2347      C2348   1.409       .  A
C2347     Br2355   1.922       .  S
C2348      C2349   1.403       .  A
C2349      C2350   1.398       .  A
C2349      H2352   1.084       .  S
C2350     Br2356   1.917       .  S
C2357      C2358   1.421       .  A
C2357      C2362   1.410       .  A
C2358      C2359   1.397       .  A
C2358     Br2374   1.924       .  S
C2359      C2360   1.398       .  A
C2359      H2363   1.083       .  S
C2360      C2364   1.473       .  S
C2360      C2361   1.402       .  A
C2361      C2362   1.398       .  A
C2361     Br2373   1.917       .  S
C2362      H2365   1.083       .  S
C2364      C2366   1.401       .  A
C2364      C2370   1.402       .  A
C2366      C2367   1.402       .  A
C2366      H2371   1.083       .  S
C2367      C2368   1.417       .  A
C2367     Br2375   1.921       .  S
C2368      C2369   1.409       .  A
C2369      C2370   1.394       .  A
C2369      H2372   1.083       .  S
C2370     Br2376   1.920       .  S
C2377      C2378   1.416       .  A
C2377      C2382   1.408       .  A
C2378      C2379   1.395       .  A
C2378     Br2394   1.923       .  S
C2379      C2380   1.399       .  A
C2379      H2383   1.084       .  S
C2380      C2384   1.472       .  S
C2380      C2381   1.403       .  A
C2381      C2382   1.399       .  A
C2381     Br2393   1.917       .  S
C2382      H2385   1.081       .  S
C2384      C2386   1.403       .  A
C2384      C2390   1.405       .  A
C2386      C2387   1.402       .  A
C2386      H2391   1.083       .  S
C2387      C2388   1.409       .  A
C2387     Br2395   1.919       .  S
C2388      C2389   1.402       .  A
C2389      C2390   1.394       .  A
C2389      H2392   1.083       .  S
C2390     Br2396   1.919       .  S
C2397      C2398   1.419       .  A
C2397      C2402   1.409       .  A
C2398      C2399   1.396       .  A
C2398     Br2414   1.924       .  S
C2399      C2400   1.397       .  A
C2399      H2403   1.084       .  S
C2400      C2404   1.479       .  S
C2400      C2401   1.407       .  A
C2401      C2402   1.405       .  A
C2401     Br2413   1.916       .  S
C2402      H2405   1.083       .  S
C2404      C2406   1.403       .  A
C2404      C2410   1.409       .  A
C2406      C2407   1.399       .  A
C2406      H2411   1.084       .  S
C2407      C2408   1.408       .  A
C2407     Br2415   1.921       .  S
C2408      C2409   1.403       .  A
C2409      C2410   1.402       .  A
C2409      H2412   1.083       .  S
C2410     Br2416   1.918       .  S
C2417      C2418   1.416       .  A
C2417      C2422   1.408       .  A
C2418      C2419   1.404       .  A
C2418     Br2434   1.921       .  S
C2419      C2420   1.404       .  A
C2419      H2423   1.084       .  S
C2420      C2424   1.497       .  S
C2420      C2421   1.412       .  A
C2421      C2422   1.407       .  A
C2421     Br2433   1.918       .  S
C2422      H2425   1.084       .  S
C2424      C2426   1.402       .  A
C2424      C2430   1.411       .  A
C2426      C2427   1.404       .  A
C2426      H2431   1.084       .  S
C2427      C2428   1.421       .  A
C2427     Br2435   1.923       .  S
C2428      C2429   1.409       .  A
C2429      C2430   1.407       .  A
C2429      H2432   1.083       .  S
C2430     Br2436   1.918       .  S
C2437      C2438   1.415       .  A
C2437      C2442   1.407       .  A
C2438      C2439   1.402       .  A
C2438     Br2454   1.922       .  S
C2439      C2440   1.405       .  A
C2439      H2443   1.084       .  S
C2440      C2444   1.490       .  S
C2440      C2441   1.410       .  A
C2441      C2442   1.401       .  A
C2441     Br2453   1.919       .  S
C2442      H2445   1.083       .  S
C2444      C2446   1.401       .  A
C2444      C2450   1.410       .  A
C2446      C2447   1.400       .  A
C2446      H2451   1.084       .  S
C2447      C2448   1.421       .  A
C2447     Br2455   1.924       .  S
C2448      C2449   1.407       .  A
C2449      C2450   1.404       .  A
C2449      H2452   1.083       .  S
C2450     Br2456   1.918       .  S
C2457      C2458   1.420       .  A
C2457      C2462   1.409       .  A
C2458      C2459   1.407       .  A
C2458     Br2474   1.922       .  S
C2459      C2460   1.405       .  A
C2459      H2463   1.083       .  S
C2460      C2464   1.492       .  S
C2460      C2461   1.408       .  A
C2461      C2462   1.399       .  A
C2461     Br2473   1.920       .  S
C2462      H2465   1.083       .  S
C2464      C2466   1.399       .  A
C2464      C2470   1.409       .  A
C2466      C2467   1.399       .  A
C2466      H2471   1.084       .  S
C2467      C2468   1.424       .  A
C2467     Br2475   1.925       .  S
C2468      C2469   1.411       .  A
C2469      C2470   1.408       .  A
C2469      H2472   1.083       .  S
C2470     Br2476   1.917       .  S
C2477      C2478   1.416       .  A
C2477      C2482   1.408       .  A
C2478      C2479   1.403       .  A
C2478     Br2494   1.922       .  S
C2479      C2480   1.405       .  A
C2479      H2483   1.084       .  S
C2480      C2484   1.489       .  S
C2480      C2481   1.408       .  A
C2481      C2482   1.401       .  A
C2481     Br2493   1.919       .  S
C2482      H2485   1.083       .  S
C2484      C2486   1.403       .  A
C2484      C2490   1.408       .  A
C2486      C2487   1.404       .  A
C2486      H2491   1.084       .  S
C2487      C2488   1.417       .  A
C2487     Br2495   1.918       .  S
C2488      C2489   1.408       .  A
C2489      C2490   1.400       .  A
C2489      H2492   1.083       .  S
C2490     Br2496   1.919       .  S
C2497      C2498   1.413       .  A
C2497      C2502   1.408       .  A
C2498      C2499   1.407       .  A
C2498     Br2514   1.919       .  S
C2499      C2500   1.407       .  A
C2499      H2503   1.084       .  S
C2500      C2504   1.493       .  S
C2500      C2501   1.408       .  A
C2501      C2502   1.403       .  A
C2501     Br2513   1.919       .  S
C2502      H2505   1.084       .  S
C2504      C2506   1.404       .  A
C2504      C2510   1.408       .  A
C2506      C2507   1.405       .  A
C2506      H2511   1.084       .  S
C2507      C2508   1.418       .  A
C2507     Br2515   1.920       .  S
C2508      C2509   1.410       .  A
C2509      C2510   1.403       .  A
C2509      H2512   1.084       .  S
C2510     Br2516   1.918       .  S
C2517      C2518   1.420       .  A
C2517      C2522   1.414       .  A
C2518      C2519   1.414       .  A
C2518     Br2534   1.919       .  S
C2519      C2520   1.408       .  A
C2519      H2523   1.083       .  S
C2520      C2524   1.506       .  S
C2520      C2521   1.409       .  A
C2521      C2522   1.406       .  A
C2521     Br2533   1.919       .  S
C2522      H2525   1.083       .  S
C2524      C2526   1.407       .  A
C2524      C2530   1.412       .  A
C2526      C2527   1.411       .  A
C2526      H2531   1.083       .  S
C2527      C2528   1.417       .  A
C2527     Br2535   1.919       .  S
C2528      C2529   1.410       .  A
C2529      C2530   1.409       .  A
C2529      H2532   1.083       .  S
C2530     Br2536   1.918       .  S
C2537      C2538   1.420       .  A
C2537      C2542   1.409       .  A
C2538      C2539   1.403       .  A
C2538     Br2554   1.921       .  S
C2539      C2540   1.401       .  A
C2539      H2543   1.084       .  S
C2540      C2544   1.488       .  S
C2540      C2541   1.409       .  A
C2541      C2542   1.403       .  A
C2541     Br2553   1.920       .  S
C2542      H2545   1.083       .  S
C2544      C2546   1.403       .  A
C2544      C2550   1.410       .  A
C2546      C2547   1.400       .  A
C2546      H2551   1.084       .  S
C2547      C2548   1.413       .  A
C2547     Br2555   1.921       .  S
C2548      C2549   1.406       .  A
C2549      C2550   1.404       .  A
C2549      H2552   1.084       .  S
C2550     Br2556   1.918       .  S
C2557      C2558   1.416       .  A
C2557      C2562   1.407       .  A
C2558      C2559   1.400       .  A
C2558     Br2574   1.920       .  S
C2559      C2560   1.400       .  A
C2559      H2563   1.084       .  S
C2560      C2564   1.487       .  S
C2560      C2561   1.412       .  A
C2561      C2562   1.406       .  A
C2561     Br2573   1.919       .  S
C2562      H2565   1.083       .  S
C2564      C2566   1.406       .  A
C2564      C2570   1.405       .  A
C2566      C2567   1.408       .  A
C2566      H2571   1.084       .  S
C2567      C2568   1.415       .  A
C2567     Br2575   1.918       .  S
C2568      C2569   1.411       .  A
C2569      C2570   1.397       .  A
C2569      H2572   1.084       .  S
C2570     Br2576   1.920       .  S
C2577      C2578   1.421       .  A
C2577      C2582   1.409       .  A
C2578      C2579   1.402       .  A
C2578     Br2594   1.922       .  S
C2579      C2580   1.400       .  A
C2579      H2583   1.084       .  S
C2580      C2584   1.485       .  S
C2580      C2581   1.407       .  A
C2581      C2582   1.402       .  A
C2581     Br2593   1.919       .  S
C2582      H2585   1.083       .  S
C2584      C2586   1.404       .  A
C2584      C2590   1.404       .  A
C2586      C2587   1.406       .  A
C2586      H2591   1.083       .  S
C2587      C2588   1.419       .  A
C2587     Br2595   1.921       .  S
C2588      C2589   1.412       .  A
C2589      C2590   1.398       .  A
C2589      H2592   1.082       .  S
C2590     Br2596   1.920       .  S
C2597      C2598   1.418       .  A
C2597      C2602   1.406       .  A
C2598      C2599   1.404       .  A
C2598     Br2614   1.920       .  S
C2599      C2600   1.402       .  A
C2599      H2603   1.083       .  S
C2600      C2604   1.492       .  S
C2600      C2601   1.411       .  A
C2601      C2602   1.405       .  A
C2601     Br2613   1.917       .  S
C2602      H2605   1.083       .  S
C2604      C2606   1.406       .  A
C2604      C2610   1.407       .  A
C2606      C2607   1.410       .  A
C2606      H2611   1.083       .  S
C2607      C2608   1.416       .  A
C2607     Br2615   1.919       .  S
C2608      C2609   1.409       .  A
C2609      C2610   1.401       .  A
C2609      H2612   1.083       .  S
C2610     Br2616   1.920       .  S
C2617      C2618   1.417       .  A
C2617      C2622   1.410       .  A
C2618      C2619   1.405       .  A
C2618     Br2634   1.920       .  S
C2619      C2620   1.405       .  A
C2619      H2623   1.083       .  S
C2620      C2624   1.499       .  S
C2620      C2621   1.411       .  A
C2621      C2622   1.406       .  A
C2621     Br2633   1.919       .  S
C2622      H2625   1.083       .  S
C2624      C2626   1.406       .  A
C2624      C2630   1.413       .  A
C2626      C2627   1.406       .  A
C2626      H2631   1.083       .  S
C2627      C2628   1.415       .  A
C2627     Br2635   1.921       .  S
C2628      C2629   1.405       .  A
C2629      C2630   1.406       .  A
C2629      H2632   1.083       .  S
C2630     Br2636   1.918       .  S
C2637      C2638   1.415       .  A
C2637      C2642   1.406       .  A
C2638      C2639   1.392       .  A
C2638     Br2654   1.923       .  S
C2639      C2640   1.398       .  A
C2639      H2643   1.084       .  S
C2640      C2644   1.472       .  S
C2640      C2641   1.407       .  A
C2641      C2642   1.401       .  A
C2641     Br2653   1.917       .  S
C2642      H2645   1.083       .  S
C2644      C2646   1.402       .  A
C2644      C2650   1.406       .  A
C2646      C2647   1.395       .  A
C2646      H2651   1.084       .  S
C2647      C2648   1.409       .  A
C2647     Br2655   1.920       .  S
C2648      C2649   1.408       .  A
C2649      C2650   1.400       .  A
C2649      H2652   1.084       .  S
C2650     Br2656   1.919       .  S
C2657      C2658   1.412       .  A
C2657      C2662   1.403       .  A
C2658      C2659   1.401       .  A
C2658     Br2674   1.922       .  S
C2659      C2660   1.402       .  A
C2659      H2663   1.083       .  S
C2660      C2664   1.484       .  S
C2660      C2661   1.411       .  A
C2661      C2662   1.401       .  A
C2661     Br2673   1.919       .  S
C2662      H2665   1.083       .  S
C2664      C2666   1.402       .  A
C2664      C2670   1.406       .  A
C2666      C2667   1.405       .  A
C2666      H2671   1.084       .  S
C2667      C2668   1.420       .  A
C2667     Br2675   1.920       .  S
C2668      C2669   1.409       .  A
C2669      C2670   1.397       .  A
C2669      H2672   1.083       .  S
C2670     Br2676   1.921       .  S
C2677      C2678   1.416       .  A
C2677      C2682   1.407       .  A
C2678      C2679   1.393       .  A
C2678     Br2694   1.922       .  S
C2679      C2680   1.396       .  A
C2679      H2683   1.084       .  S
C2680      C2684   1.476       .  S
C2680      C2681   1.407       .  A
C2681      C2682   1.405       .  A
C2681     Br2693   1.916       .  S
C2682      H2685   1.082       .  S
C2684      C2686   1.402       .  A
C2684      C2690   1.407       .  A
C2686      C2687   1.398       .  A
C2686      H2691   1.084       .  S
C2687      C2688   1.409       .  A
C2687     Br2695   1.919       .  S
C2688      C2689   1.406       .  A
C2689      C2690   1.402       .  A
C2689      H2692   1.084       .  S
C2690     Br2696   1.918       .  S
C2697      C2698   1.411       .  A
C2697      C2702   1.403       .  A
C2698      C2699   1.399       .  A
C2698     Br2714   1.921       .  S
C2699      C2700   1.402       .  A
C2699      H2703   1.083       .  S
C2700      C2704   1.475       .  S
C2700      C2701   1.407       .  A
C2701      C2702   1.399       .  A
C2701     Br2713   1.918       .  S
C2702      H2705   1.083       .  S
C2704      C2706   1.400       .  A
C2704      C2710   1.405       .  A
C2706      C2707   1.401       .  A
C2706      H2711   1.083       .  S
C2707      C2708   1.418       .  A
C2707     Br2715   1.921       .  S
C2708      C2709   1.406       .  A
C2709      C2710   1.397       .  A
C2709      H2712   1.083       .  S
C2710     Br2716   1.919       .  S
C2717      C2718   1.414       .  A
C2717      C2722   1.405       .  A
C2718      C2719   1.406       .  A
C2718     Br2734   1.918       .  S
C2719      C2720   1.407       .  A
C2719      H2723   1.083       .  S
C2720      C2724   1.503       .  S
C2720      C2721   1.414       .  A
C2721      C2722   1.404       .  A
C2721     Br2733   1.920       .  S
C2722      H2725   1.084       .  S
C2724      C2726   1.402       .  A
C2724      C2730   1.414       .  A
C2726      C2727   1.400       .  A
C2726      H2731   1.083       .  S
C2727      C2728   1.423       .  A
C2727     Br2735   1.925       .  S
C2728      C2729   1.411       .  A
C2729      C2730   1.410       .  A
C2729      H2732   1.083       .  S
C2730     Br2736   1.919       .  S
C2737      C2738   1.416       .  A
C2737      C2742   1.407       .  A
C2738      C2739   1.400       .  A
C2738     Br2754   1.921       .  S
C2739      C2740   1.401       .  A
C2739      H2743   1.083       .  S
C2740      C2744   1.491       .  S
C2740      C2741   1.414       .  A
C2741      C2742   1.406       .  A
C2741     Br2753   1.921       .  S
C2742      H2745   1.083       .  S
C2744      C2746   1.406       .  A
C2744      C2750   1.408       .  A
C2746      C2747   1.405       .  A
C2746      H2751   1.084       .  S
C2747      C2748   1.416       .  A
C2747     Br2755   1.920       .  S
C2748      C2749   1.411       .  A
C2749      C2750   1.400       .  A
C2749      H2752   1.084       .  S
C2750     Br2756   1.920       .  S
C2757      C2758   1.412       .  A
C2757      C2762   1.406       .  A
C2758      C2759   1.402       .  A
C2758     Br2774   1.921       .  S
C2759      C2760   1.405       .  A
C2759      H2763   1.083       .  S
C2760      C2764   1.483       .  S
C2760      C2761   1.407       .  A
C2761      C2762   1.401       .  A
C2761     Br2773   1.918       .  S
C2762      H2765   1.083       .  S
C2764      C2766   1.406       .  A
C2764      C2770   1.404       .  A
C2766      C2767   1.407       .  A
C2766      H2771   1.083       .  S
C2767      C2768   1.415       .  A
C2767     Br2775   1.919       .  S
C2768      C2769   1.410       .  A
C2769      C2770   1.394       .  A
C2769      H2772   1.083       .  S
C2770     Br2776   1.921       .  S
C2777      C2778   1.412       .  A
C2777      C2782   1.407       .  A
C2778      C2779   1.401       .  A
C2778     Br2794   1.916       .  S
C2779      C2780   1.404       .  A
C2779      H2783   1.084       .  S
C2780      C2784   1.484       .  S
C2780      C2781   1.407       .  A
C2781      C2782   1.401       .  A
C2781     Br2793   1.919       .  S
C2782      H2785   1.084       .  S
C2784      C2786   1.404       .  A
C2784      C2790   1.406       .  A
C2786      C2787   1.406       .  A
C2786      H2791   1.083       .  S
C2787      C2788   1.416       .  A
C2787     Br2795   1.919       .  S
C2788      C2789   1.411       .  A
C2789      C2790   1.396       .  A
C2789      H2792   1.083       .  S
C2790     Br2796   1.921       .  S
C2797      C2798   1.414       .  A
C2797      C2802   1.407       .  A
C2798      C2799   1.399       .  A
C2798     Br2814   1.920       .  S
C2799      C2800   1.401       .  A
C2799      H2803   1.085       .  S
C2800      C2804   1.483       .  S
C2800      C2801   1.409       .  A
C2801      C2802   1.403       .  A
C2801     Br2813   1.919       .  S
C2802      H2805   1.085       .  S
C2804      C2806   1.401       .  A
C2804      C2810   1.407       .  A
C2806      C2807   1.400       .  A
C2806      H2811   1.084       .  S
C2807      C2808   1.416       .  A
C2807     Br2815   1.917       .  S
C2808      C2809   1.408       .  A
C2809      C2810   1.402       .  A
C2809      H2812   1.083       .  S
C2810     Br2816   1.918       .  S
C2817      C2818   1.417       .  A
C2817      C2822   1.409       .  A
C2818      C2819   1.409       .  A
C2818     Br2834   1.920       .  S
C2819      C2820   1.404       .  A
C2819      H2823   1.083       .  S
C2820      C2824   1.498       .  S
C2820      C2821   1.410       .  A
C2821      C2822   1.407       .  A
C2821     Br2833   1.919       .  S
C2822      H2825   1.083       .  S
C2824      C2826   1.405       .  A
C2824      C2830   1.407       .  A
C2826      C2827   1.411       .  A
C2826      H2831   1.083       .  S
C2827      C2828   1.419       .  A
C2827     Br2835   1.918       .  S
C2828      C2829   1.415       .  A
C2829      C2830   1.405       .  A
C2829      H2832   1.083       .  S
C2830     Br2836   1.919       .  S
C2837      C2838   1.417       .  A
C2837      C2842   1.409       .  A
C2838      C2839   1.405       .  A
C2838     Br2854   1.920       .  S
C2839      C2840   1.402       .  A
C2839      H2843   1.083       .  S
C2840      C2844   1.470       .  S
C2840      C2841   1.401       .  A
C2841      C2842   1.388       .  A
C2841     Br2853   1.922       .  S
C2842      H2845   1.083       .  S
C2844      C2846   1.399       .  A
C2844      C2850   1.408       .  A
C2846      C2847   1.394       .  A
C2846      H2851   1.084       .  S
C2847      C2848   1.411       .  A
C2847     Br2855   1.919       .  S
C2848      C2849   1.403       .  A
C2849      C2850   1.400       .  A
C2849      H2852   1.083       .  S
C2850     Br2856   1.918       .  S
C2857      C2858   1.411       .  A
C2857      C2862   1.405       .  A
C2858      C2859   1.398       .  A
C2858     Br2874   1.922       .  S
C2859      C2860   1.401       .  A
C2859      H2863   1.083       .  S
C2860      C2864   1.472       .  S
C2860      C2861   1.406       .  A
C2861      C2862   1.398       .  A
C2861     Br2873   1.918       .  S
C2862      H2865   1.083       .  S
C2864      C2866   1.398       .  A
C2864      C2870   1.404       .  A
C2866      C2867   1.400       .  A
C2866      H2871   1.084       .  S
C2867      C2868   1.420       .  A
C2867     Br2875   1.922       .  S
C2868      C2869   1.408       .  A
C2869      C2870   1.396       .  A
C2869      H2872   1.083       .  S
C2870     Br2876   1.920       .  S
C2877      C2878   1.412       .  A
C2877      C2882   1.407       .  A
C2878      C2879   1.405       .  A
C2878     Br2894   1.916       .  S
C2879      C2880   1.405       .  A
C2879      H2883   1.083       .  S
C2880      C2884   1.479       .  S
C2880      C2881   1.405       .  A
C2881      C2882   1.392       .  A
C2881     Br2893   1.921       .  S
C2882      H2885   1.083       .  S
C2884      C2886   1.401       .  A
C2884      C2890   1.408       .  A
C2886      C2887   1.399       .  A
C2886      H2891   1.083       .  S
C2887      C2888   1.414       .  A
C2887     Br2895   1.920       .  S
C2888      C2889   1.404       .  A
C2889      C2890   1.399       .  A
C2889      H2892   1.083       .  S
C2890     Br2896   1.919       .  S
C2897      C2898   1.416       .  A
C2897      C2902   1.406       .  A
C2898      C2899   1.403       .  A
C2898     Br2914   1.922       .  S
C2899      C2900   1.403       .  A
C2899      H2903   1.083       .  S
C2900      C2904   1.483       .  S
C2900      C2901   1.409       .  A
C2901      C2902   1.398       .  A
C2901     Br2913   1.921       .  S
C2902      H2905   1.083       .  S
C2904      C2906   1.402       .  A
C2904      C2910   1.408       .  A
C2906      C2907   1.400       .  A
C2906      H2911   1.084       .  S
C2907      C2908   1.415       .  A
C2907     Br2915   1.922       .  S
C2908      C2909   1.408       .  A
C2909      C2910   1.401       .  A
C2909      H2912   1.084       .  S
C2910     Br2916   1.919       .  S
C2917      C2918   1.417       .  A
C2917      C2922   1.409       .  A
C2918      C2919   1.407       .  A
C2918     Br2934   1.919       .  S
C2919      C2920   1.404       .  A
C2919      H2923   1.083       .  S
C2920      C2924   1.489       .  S
C2920      C2921   1.407       .  A
C2921      C2922   1.399       .  A
C2921     Br2933   1.913       .  S
C2922      H2925   1.083       .  S
C2924      C2926   1.405       .  A
C2924      C2930   1.405       .  A
C2926      C2927   1.410       .  A
C2926      H2931   1.084       .  S
C2927      C2928   1.418       .  A
C2927     Br2935   1.918       .  S
C2928      C2929   1.413       .  A
C2929      C2930   1.400       .  A
C2929      H2932   1.083       .  S
C2930     Br2936   1.920       .  S
C2937      C2938   1.414       .  A
C2937      C2942   1.407       .  A
C2938      C2939   1.406       .  A
C2938     Br2954   1.919       .  S
C2939      C2940   1.406       .  A
C2939      H2943   1.083       .  S
C2940      C2944   1.500       .  S
C2940      C2941   1.413       .  A
C2941      C2942   1.406       .  A
C2941     Br2953   1.919       .  S
C2942      H2945   1.083       .  S
C2944      C2946   1.407       .  A
C2944      C2950   1.413       .  A
C2946      C2947   1.406       .  A
C2946      H2951   1.083       .  S
C2947      C2948   1.412       .  A
C2947     Br2955   1.920       .  S
C2948      C2949   1.406       .  A
C2949      C2950   1.407       .  A
C2949      H2952   1.084       .  S
C2950     Br2956   1.919       .  S
C2957      C2958   1.422       .  A
C2957      C2962   1.411       .  A
C2958      C2959   1.400       .  A
C2958     Br2974   1.925       .  S
C2959      C2960   1.401       .  A
C2959      H2963   1.084       .  S
C2960      C2964   1.493       .  S
C2960      C2961   1.409       .  A
C2961      C2962   1.407       .  A
C2961     Br2973   1.917       .  S
C2962      H2965   1.083       .  S
C2964      C2966   1.407       .  A
C2964      C2970   1.409       .  A
C2966      C2967   1.407       .  A
C2966      H2971   1.083       .  S
C2967      C2968   1.416       .  A
C2967     Br2975   1.921       .  S
C2968      C2969   1.407       .  A
C2969      C2970   1.400       .  A
C2969      H2972   1.084       .  S
C2970     Br2976   1.920       .  S
C2977      C2978   1.414       .  A
C2977      C2982   1.407       .  A
C2978      C2979   1.402       .  A
C2978     Br2994   1.922       .  S
C2979      C2980   1.406       .  A
C2979      H2983   1.083       .  S
C2980      C2984   1.495       .  S
C2980      C2981   1.412       .  A
C2981      C2982   1.404       .  A
C2981     Br2993   1.919       .  S
C2982      H2985   1.083       .  S
C2984      C2986   1.405       .  A
C2984      C2990   1.411       .  A
C2986      C2987   1.405       .  A
C2986      H2991   1.083       .  S
C2987      C2988   1.419       .  A
C2987     Br2995   1.920       .  S
C2988      C2989   1.409       .  A
C2989      C2990   1.401       .  A
C2989      H2992   1.083       .  S
C2990     Br2996   1.921       .  S
C2997      C2998   1.415       .  A
C2997      C3002   1.407       .  A
C2998      C2999   1.403       .  A
C2998     Br3014   1.922       .  S
C2999      C3000   1.403       .  A
C2999      H3003   1.084       .  S
C3000      C3004   1.481       .  S
C3000      C3001   1.406       .  A
C3001      C3002   1.398       .  A
C3001     Br3013   1.918       .  S
C3002      H3005   1.083       .  S
C3004      C3006   1.397       .  A
C3004      C3010   1.406       .  A
C3006      C3007   1.396       .  A
C3006      H3011   1.084       .  S
C3007      C3008   1.424       .  A
C3007     Br3015   1.926       .  S
C3008      C3009   1.410       .  A
C3009      C3010   1.405       .  A
C3009      H3012   1.083       .  S
C3010     Br3016   1.917       .  S
C3017      C3018   1.417       .  A
C3017      C3022   1.408       .  A
C3018      C3019   1.400       .  A
C3018     Br3034   1.922       .  S
C3019      C3020   1.402       .  A
C3019      H3023   1.084       .  S
C3020      C3024   1.489       .  S
C3020      C3021   1.411       .  A
C3021      C3022   1.404       .  A
C3021     Br3033   1.919       .  S
C3022      H3025   1.083       .  S
C3024      C3026   1.403       .  A
C3024      C3030   1.412       .  A
C3026      C3027   1.401       .  A
C3026      H3031   1.083       .  S
C3027      C3028   1.415       .  A
C3027     Br3035   1.921       .  S
C3028      C3029   1.406       .  A
C3029      C3030   1.403       .  A
C3029      H3032   1.083       .  S
C3030     Br3036   1.921       .  S
C3037      C3038   1.410       .  A
C3037      C3042   1.405       .  A
C3038      C3039   1.396       .  A
C3038     Br3054   1.921       .  S
C3039      C3040   1.402       .  A
C3039      H3043   1.084       .  S
C3040      C3044   1.483       .  S
C3040      C3041   1.410       .  A
C3041      C3042   1.406       .  A
C3041     Br3053   1.917       .  S
C3042      H3045   1.084       .  S
C3044      C3046   1.403       .  A
C3044      C3050   1.405       .  A
C3046      C3047   1.406       .  A
C3046      H3051   1.084       .  S
C3047      C3048   1.418       .  A
C3047     Br3055   1.920       .  S
C3048      C3049   1.408       .  A
C3049      C3050   1.396       .  A
C3049      H3052   1.084       .  S
C3050     Br3056   1.920       .  S
C3057      C3058   1.416       .  A
C3057      C3062   1.406       .  A
C3058      C3059   1.408       .  A
C3058     Br3074   1.919       .  S
C3059      C3060   1.405       .  A
C3059      H3063   1.083       .  S
C3060      C3064   1.481       .  S
C3060      C3061   1.407       .  A
C3061      C3062   1.392       .  A
C3061     Br3073   1.923       .  S
C3062      H3065   1.084       .  S
C3064      C3066   1.404       .  A
C3064      C3070   1.407       .  A
C3066      C3067   1.404       .  A
C3066      H3071   1.083       .  S
C3067      C3068   1.412       .  A
C3067     Br3075   1.919       .  S
C3068      C3069   1.406       .  A
C3069      C3070   1.396       .  A
C3069      H3072   1.084       .  S
C3070     Br3076   1.921       .  S
C3077      C3078   1.416       .  A
C3077      C3082   1.409       .  A
C3078      C3079   1.411       .  A
C3078     Br3094   1.919       .  S
C3079      C3080   1.406       .  A
C3079      H3083   1.083       .  S
C3080      C3084   1.498       .  S
C3080      C3081   1.409       .  A
C3081      C3082   1.405       .  A
C3081     Br3093   1.919       .  S
C3082      H3085   1.084       .  S
C3084      C3086   1.405       .  A
C3084      C3090   1.410       .  A
C3086      C3087   1.407       .  A
C3086      H3091   1.083       .  S
C3087      C3088   1.416       .  A
C3087     Br3095   1.919       .  S
C3088      C3089   1.409       .  A
C3089      C3090   1.408       .  A
C3089      H3092   1.083       .  S
C3090     Br3096   1.917       .  S
C3097      C3098   1.416       .  A
C3097      C3102   1.409       .  A
C3098      C3099   1.397       .  A
C3098     Br3114   1.922       .  S
C3099      C3100   1.400       .  A
C3099      H3103   1.085       .  S
C3100      C3104   1.474       .  S
C3100      C3101   1.404       .  A
C3101      C3102   1.399       .  A
C3101     Br3113   1.918       .  S
C3102      H3105   1.083       .  S
C3104      C3106   1.401       .  A
C3104      C3110   1.408       .  A
C3106      C3107   1.397       .  A
C3106      H3111   1.084       .  S
C3107      C3108   1.411       .  A
C3107     Br3115   1.922       .  S
C3108      C3109   1.403       .  A
C3109      C3110   1.399       .  A
C3109      H3112   1.084       .  S
C3110     Br3116   1.918       .  S
C3117      C3118   1.414       .  A
C3117      C3122   1.406       .  A
C3118      C3119   1.392       .  A
C3118     Br3134   1.923       .  S
C3119      C3120   1.399       .  A
C3119      H3123   1.084       .  S
C3120      C3124   1.475       .  S
C3120      C3121   1.407       .  A
C3121      C3122   1.401       .  A
C3121     Br3133   1.917       .  S
C3122      H3125   1.083       .  S
C3124      C3126   1.400       .  A
C3124      C3130   1.407       .  A
C3126      C3127   1.400       .  A
C3126      H3131   1.083       .  S
C3127      C3128   1.416       .  A
C3127     Br3135   1.920       .  S
C3128      C3129   1.405       .  A
C3129      C3130   1.395       .  A
C3129      H3132   1.083       .  S
C3130     Br3136   1.921       .  S
C3137      C3138   1.417       .  A
C3137      C3142   1.408       .  A
C3138      C3139   1.396       .  A
C3138     Br3154   1.924       .  S
C3139      C3140   1.399       .  A
C3139      H3143   1.084       .  S
C3140      C3144   1.478       .  S
C3140      C3141   1.407       .  A
C3141      C3142   1.404       .  A
C3141     Br3153   1.917       .  S
C3142      H3145   1.084       .  S
C3144      C3146   1.401       .  A
C3144      C3150   1.404       .  A
C3146      C3147   1.404       .  A
C3146      H3151   1.083       .  S
C3147      C3148   1.421       .  A
C3147     Br3155   1.921       .  S
C3148      C3149   1.410       .  A
C3149      C3150   1.395       .  A
C3149      H3152   1.083       .  S
C3150     Br3156   1.920       .  S
C3157      C3158   1.416       .  A
C3157      C3162   1.408       .  A
C3158      C3159   1.398       .  A
C3158     Br3174   1.922       .  S
C3159      C3160   1.400       .  A
C3159      H3163   1.084       .  S
C3160      C3164   1.470       .  S
C3160      C3161   1.404       .  A
C3161      C3162   1.395       .  A
C3161     Br3173   1.920       .  S
C3162      H3165   1.084       .  S
C3164      C3166   1.398       .  A
C3164      C3170   1.403       .  A
C3166      C3167   1.395       .  A
C3166      H3171   1.084       .  S
C3167      C3168   1.417       .  A
C3167     Br3175   1.922       .  S
C3168      C3169   1.411       .  A
C3169      C3170   1.398       .  A
C3169      H3172   1.082       .  S
C3170     Br3176   1.919       .  S
C3177      C3178   1.409       .  A
C3177      C3182   1.403       .  A
C3178      C3179   1.403       .  A
C3178     Br3194   1.917       .  S
C3179      C3180   1.405       .  A
C3179      H3183   1.083       .  S
C3180      C3184   1.480       .  S
C3180      C3181   1.408       .  A
C3181      C3182   1.397       .  A
C3181     Br3193   1.920       .  S
C3182      H3185   1.083       .  S
C3184      C3186   1.400       .  A
C3184      C3190   1.407       .  A
C3186      C3187   1.395       .  A
C3186      H3191   1.084       .  S
C3187      C3188   1.414       .  A
C3187     Br3195   1.922       .  S
C3188      C3189   1.408       .  A
C3189      C3190   1.403       .  A
C3189      H3192   1.083       .  S
C3190     Br3196   1.917       .  S
C3197      C3198   1.419       .  A
C3197      C3202   1.408       .  A
C3198      C3199   1.399       .  A
C3198     Br3214   1.923       .  S
C3199      C3200   1.398       .  A
C3199      H3203   1.084       .  S
C3200      C3204   1.466       .  S
C3200      C3201   1.402       .  A
C3201      C3202   1.392       .  A
C3201     Br3213   1.921       .  S
C3202      H3205   1.083       .  S
C3204      C3206   1.401       .  A
C3204      C3210   1.405       .  A
C3206      C3207   1.396       .  A
C3206      H3211   1.083       .  S
C3207      C3208   1.409       .  A
C3207     Br3215   1.921       .  S
C3208      C3209   1.404       .  A
C3209      C3210   1.395       .  A
C3209      H3212   1.084       .  S
C3210     Br3216   1.918       .  S
C3217      C3218   1.415       .  A
C3217      C3222   1.407       .  A
C3218      C3219   1.404       .  A
C3218     Br3234   1.922       .  S
C3219      C3220   1.403       .  A
C3219      H3223   1.083       .  S
C3220      C3224   1.493       .  S
C3220      C3221   1.410       .  A
C3221      C3222   1.408       .  A
C3221     Br3233   1.917       .  S
C3222      H3225   1.083       .  S
C3224      C3226   1.404       .  A
C3224      C3230   1.408       .  A
C3226      C3227   1.406       .  A
C3226      H3231   1.083       .  S
C3227      C3228   1.416       .  A
C3227     Br3235   1.919       .  S
C3228      C3229   1.409       .  A
C3229      C3230   1.406       .  A
C3229      H3232   1.083       .  S
C3230     Br3236   1.918       .  S
C3237      C3238   1.409       .  A
C3237      C3242   1.401       .  A
C3238      C3239   1.400       .  A
C3238     Br3254   1.920       .  S
C3239      C3240   1.404       .  A
C3239      H3243   1.083       .  S
C3240      C3244   1.487       .  S
C3240      C3241   1.413       .  A
C3241      C3242   1.402       .  A
C3241     Br3253   1.918       .  S
C3242      H3245   1.083       .  S
C3244      C3246   1.399       .  A
C3244      C3250   1.407       .  A
C3246      C3247   1.400       .  A
C3246      H3251   1.084       .  S
C3247      C3248   1.422       .  A
C3247     Br3255   1.920       .  S
C3248      C3249   1.411       .  A
C3249      C3250   1.404       .  A
C3249      H3252   1.083       .  S
C3250     Br3256   1.918       .  S
C3257      C3258   1.408       .  A
C3257      C3262   1.405       .  A
C3258      C3259   1.404       .  A
C3258     Br3274   1.917       .  S
C3259      C3260   1.405       .  A
C3259      H3263   1.083       .  S
C3260      C3264   1.485       .  S
C3260      C3261   1.409       .  A
C3261      C3262   1.401       .  A
C3261     Br3273   1.919       .  S
C3262      H3265   1.083       .  S
C3264      C3266   1.401       .  A
C3264      C3270   1.405       .  A
C3266      C3267   1.404       .  A
C3266      H3271   1.083       .  S
C3267      C3268   1.421       .  A
C3267     Br3275   1.923       .  S
C3268      C3269   1.411       .  A
C3269      C3270   1.403       .  A
C3269      H3272   1.083       .  S
C3270     Br3276   1.918       .  S
C3277      C3278   1.420       .  A
C3277      C3282   1.408       .  A
C3278      C3279   1.400       .  A
C3278     Br3294   1.922       .  S
C3279      C3280   1.399       .  A
C3279      H3283   1.084       .  S
C3280      C3284   1.484       .  S
C3280      C3281   1.409       .  A
C3281      C3282   1.401       .  A
C3281     Br3293   1.919       .  S
C3282      H3285   1.083       .  S
C3284      C3286   1.398       .  A
C3284      C3290   1.412       .  A
C3286      C3287   1.394       .  A
C3286      H3291   1.084       .  S
C3287      C3288   1.413       .  A
C3287     Br3295   1.916       .  S
C3288      C3289   1.404       .  A
C3289      C3290   1.406       .  A
C3289      H3292   1.083       .  S
C3290     Br3296   1.917       .  S
C3297      C3298   1.415       .  A
C3297      C3302   1.407       .  A
C3298      C3299   1.402       .  A
C3298     Br3314   1.920       .  S
C3299      C3300   1.402       .  A
C3299      H3303   1.083       .  S
C3300      C3304   1.488       .  S
C3300      C3301   1.409       .  A
C3301      C3302   1.406       .  A
C3301     Br3313   1.917       .  S
C3302      H3305   1.082       .  S
C3304      C3306   1.408       .  A
C3304      C3310   1.406       .  A
C3306      C3307   1.410       .  A
C3306      H3311   1.083       .  S
C3307      C3308   1.411       .  A
C3307     Br3315   1.916       .  S
C3308      C3309   1.408       .  A
C3309      C3310   1.398       .  A
C3309      H3312   1.084       .  S
C3310     Br3316   1.920       .  S
C3317      C3318   1.419       .  A
C3317      C3322   1.410       .  A
C3318      C3319   1.406       .  A
C3318     Br3334   1.922       .  S
C3319      C3320   1.404       .  A
C3319      H3323   1.083       .  S
C3320      C3324   1.496       .  S
C3320      C3321   1.409       .  A
C3321      C3322   1.407       .  A
C3321     Br3333   1.918       .  S
C3322      H3325   1.083       .  S
C3324      C3326   1.405       .  A
C3324      C3330   1.411       .  A
C3326      C3327   1.406       .  A
C3326      H3331   1.083       .  S
C3327      C3328   1.414       .  A
C3327     Br3335   1.919       .  S
C3328      C3329   1.408       .  A
C3329      C3330   1.406       .  A
C3329      H3332   1.083       .  S
C3330     Br3336   1.918       .  S
C3337      C3338   1.415       .  A
C3337      C3342   1.405       .  A
C3338      C3339   1.400       .  A
C3338     Br3354   1.920       .  S
C3339      C3340   1.400       .  A
C3339      H3343   1.084       .  S
C3340      C3344   1.486       .  S
C3340      C3341   1.413       .  A
C3341      C3342   1.404       .  A
C3341     Br3353   1.921       .  S
C3342      H3345   1.084       .  S
C3344      C3346   1.405       .  A
C3344      C3350   1.406       .  A
C3346      C3347   1.405       .  A
C3346      H3351   1.083       .  S
C3347      C3348   1.417       .  A
C3347     Br3355   1.921       .  S
C3348      C3349   1.409       .  A
C3349      C3350   1.397       .  A
C3349      H3352   1.084       .  S
C3350     Br3356   1.919       .  S
C3357      C3358   1.412       .  A
C3357      C3362   1.405       .  A
C3358      C3359   1.404       .  A
C3358     Br3374   1.920       .  S
C3359      C3360   1.404       .  A
C3359      H3363   1.083       .  S
C3360      C3364   1.487       .  S
C3360      C3361   1.410       .  A
C3361      C3362   1.401       .  A
C3361     Br3373   1.919       .  S
C3362      H3365   1.084       .  S
C3364      C3366   1.402       .  A
C3364      C3370   1.408       .  A
C3366      C3367   1.405       .  A
C3366      H3371   1.084       .  S
C3367      C3368   1.419       .  A
C3367     Br3375   1.920       .  S
C3368      C3369   1.411       .  A
C3369      C3370   1.401       .  A
C3369      H3372   1.083       .  S
C3370     Br3376   1.920       .  S
C3377      C3378   1.415       .  A
C3377      C3382   1.408       .  A
C3378      C3379   1.406       .  A
C3378     Br3394   1.919       .  S
C3379      C3380   1.406       .  A
C3379      H3383   1.083       .  S
C3380      C3384   1.493       .  S
C3380      C3381   1.409       .  A
C3381      C3382   1.402       .  A
C3381     Br3393   1.920       .  S
C3382      H3385   1.083       .  S
C3384      C3386   1.408       .  A
C3384      C3390   1.408       .  A
C3386      C3387   1.408       .  A
C3386      H3391   1.082       .  S
C3387      C3388   1.412       .  A
C3387     Br3395   1.918       .  S
C3388      C3389   1.409       .  A
C3389      C3390   1.398       .  A
C3389      H3392   1.082       .  S
C3390     Br3396   1.919       .  S
C3397      C3398   1.416       .  A
C3397      C3402   1.409       .  A
C3398      C3399   1.403       .  A
C3398     Br3414   1.922       .  S
C3399      C3400   1.403       .  A
C3399      H3403   1.083       .  S
C3400      C3404   1.487       .  S
C3400      C3401   1.407       .  A
C3401      C3402   1.402       .  A
C3401     Br3413   1.918       .  S
C3402      H3405   1.083       .  S
C3404      C3406   1.403       .  A
C3404      C3410   1.409       .  A
C3406      C3407   1.402       .  A
C3406      H3411   1.083       .  S
C3407      C3408   1.413       .  A
C3407     Br3415   1.919       .  S
C3408      C3409   1.407       .  A
C3409      C3410   1.403       .  A
C3409      H3412   1.083       .  S
C3410     Br3416   1.918       .  S
C3417      C3418   1.423       .  A
C3417      C3422   1.411       .  A
C3418      C3419   1.405       .  A
C3418     Br3434   1.922       .  S
C3419      C3420   1.401       .  A
C3419      H3423   1.084       .  S
C3420      C3424   1.494       .  S
C3420      C3421   1.410       .  A
C3421      C3422   1.407       .  A
C3421     Br3433   1.918       .  S
C3422      H3425   1.083       .  S
C3424      C3426   1.406       .  A
C3424      C3430   1.410       .  A
C3426      C3427   1.408       .  A
C3426      H3431   1.083       .  S
C3427      C3428   1.413       .  A
C3427     Br3435   1.919       .  S
C3428      C3429   1.406       .  A
C3429      C3430   1.403       .  A
C3429      H3432   1.084       .  S
C3430     Br3436   1.920       .  S
C3437      C3438   1.410       .  A
C3437      C3442   1.404       .  A
C3438      C3439   1.400       .  A
C3438     Br3454   1.920       .  S
C3439      C3440   1.403       .  A
C3439      H3443   1.083       .  S
C3440      C3444   1.469       .  S
C3440      C3441   1.404       .  A
C3441      C3442   1.394       .  A
C3441     Br3453   1.920       .  S
C3442      H3445   1.083       .  S
C3444      C3446   1.398       .  A
C3444      C3450   1.407       .  A
C3446      C3447   1.392       .  A
C3446      H3451   1.084       .  S
C3447      C3448   1.411       .  A
C3447     Br3455   1.922       .  S
C3448      C3449   1.404       .  A
C3449      C3450   1.401       .  A
C3449      H3452   1.083       .  S
C3450     Br3456   1.917       .  S
C3457      C3458   1.412       .  A
C3457      C3462   1.407       .  A
C3458      C3459   1.396       .  A
C3458     Br3474   1.922       .  S
C3459      C3460   1.401       .  A
C3459      H3463   1.084       .  S
C3460      C3464   1.470       .  S
C3460      C3461   1.403       .  A
C3461      C3462   1.398       .  A
C3461     Br3473   1.917       .  S
C3462      H3465   1.084       .  S
C3464      C3466   1.403       .  A
C3464      C3470   1.404       .  A
C3466      C3467   1.402       .  A
C3466      H3471   1.083       .  S
C3467      C3468   1.410       .  A
C3467     Br3475   1.918       .  S
C3468      C3469   1.404       .  A
C3469      C3470   1.392       .  A
C3469      H3472   1.084       .  S
C3470     Br3476   1.920       .  S
C3477      C3478   1.414       .  A
C3477      C3482   1.406       .  A
C3478      C3479   1.391       .  A
C3478     Br3494   1.921       .  S
C3479      C3480   1.399       .  A
C3479      H3483   1.084       .  S
C3480      C3484   1.478       .  S
C3480      C3481   1.409       .  A
C3481      C3482   1.403       .  A
C3481     Br3493   1.918       .  S
C3482      H3485   1.083       .  S
C3484      C3486   1.406       .  A
C3484      C3490   1.407       .  A
C3486      C3487   1.405       .  A
C3486      H3491   1.083       .  S
C3487      C3488   1.413       .  A
C3487     Br3495   1.918       .  S
C3488      C3489   1.404       .  A
C3489      C3490   1.388       .  A
C3489      H3492   1.084       .  S
C3490     Br3496   1.923       .  S
C3497      C3498   1.418       .  A
C3497      C3502   1.411       .  A
C3498      C3499   1.408       .  A
C3498     Br3514   1.920       .  S
C3499      C3500   1.405       .  A
C3499      H3503   1.083       .  S
C3500      C3504   1.484       .  S
C3500      C3501   1.404       .  A
C3501      C3502   1.394       .  A
C3501     Br3513   1.921       .  S
C3502      H3505   1.083       .  S
C3504      C3506   1.406       .  A
C3504      C3510   1.408       .  A
C3506      C3507   1.402       .  A
C3506      H3511   1.083       .  S
C3507      C3508   1.409       .  A
C3507     Br3515   1.919       .  S
C3508      C3509   1.405       .  A
C3509      C3510   1.400       .  A
C3509      H3512   1.083       .  S
C3510     Br3516   1.918       .  S
C3517      C3518   1.423       .  A
C3517      C3522   1.410       .  A
C3518      C3519   1.404       .  A
C3518     Br3534   1.922       .  S
C3519      C3520   1.400       .  A
C3519      H3523   1.084       .  S
C3520      C3524   1.493       .  S
C3520      C3521   1.409       .  A
C3521      C3522   1.407       .  A
C3521     Br3533   1.918       .  S
C3522      H3525   1.083       .  S
C3524      C3526   1.406       .  A
C3524      C3530   1.407       .  A
C3526      C3527   1.409       .  A
C3526      H3531   1.083       .  S
C3527      C3528   1.419       .  A
C3527     Br3535   1.920       .  S
C3528      C3529   1.412       .  A
C3529      C3530   1.400       .  A
C3529      H3532   1.082       .  S
C3530     Br3536   1.920       .  S
C3537      C3538   1.415       .  A
C3537      C3542   1.413       .  A
C3538      C3539   1.404       .  A
C3538     Br3554   1.919       .  S
C3539      C3540   1.405       .  A
C3539      H3543   1.084       .  S
C3540      C3544   1.485       .  S
C3540      C3541   1.405       .  A
C3541      C3542   1.397       .  A
C3541     Br3553   1.921       .  S
C3542      H3545   1.083       .  S
C3544      C3546   1.405       .  A
C3544      C3550   1.410       .  A
C3546      C3547   1.401       .  A
C3546      H3551   1.083       .  S
C3547      C3548   1.409       .  A
C3547     Br3555   1.919       .  S
C3548      C3549   1.403       .  A
C3549      C3550   1.400       .  A
C3549      H3552   1.084       .  S
C3550     Br3556   1.919       .  S
C3557      C3558   1.414       .  A
C3557      C3562   1.407       .  A
C3558      C3559   1.401       .  A
C3558     Br3574   1.921       .  S
C3559      C3560   1.402       .  A
C3559      H3563   1.084       .  S
C3560      C3564   1.484       .  S
C3560      C3561   1.410       .  A
C3561      C3562   1.400       .  A
C3561     Br3573   1.921       .  S
C3562      H3565   1.084       .  S
C3564      C3566   1.401       .  A
C3564      C3570   1.408       .  A
C3566      C3567   1.401       .  A
C3566      H3571   1.084       .  S
C3567      C3568   1.417       .  A
C3567     Br3575   1.920       .  S
C3568      C3569   1.410       .  A
C3569      C3570   1.400       .  A
C3569      H3572   1.083       .  S
C3570     Br3576   1.920       .  S
C3577      C3578   1.421       .  A
C3577      C3582   1.408       .  A
C3578      C3579   1.395       .  A
C3578     Br3594   1.920       .  S
C3579      C3580   1.399       .  A
C3579      H3583   1.084       .  S
C3580      C3584   1.493       .  S
C3580      C3581   1.413       .  A
C3581      C3582   1.406       .  A
C3581     Br3593   1.919       .  S
C3582      H3585   1.083       .  S
C3584      C3586   1.404       .  A
C3584      C3590   1.414       .  A
C3586      C3587   1.401       .  A
C3586      H3591   1.083       .  S
C3587      C3588   1.415       .  A
C3587     Br3595   1.920       .  S
C3588      C3589   1.404       .  A
C3589      C3590   1.402       .  A
C3589      H3592   1.083       .  S
C3590     Br3596   1.921       .  S
C3597      C3598   1.411       .  A
C3597      C3602   1.405       .  A
C3598      C3599   1.400       .  A
C3598     Br3614   1.920       .  S
C3599      C3600   1.402       .  A
C3599      H3603   1.083       .  S
C3600      C3604   1.479       .  S
C3600      C3601   1.407       .  A
C3601      C3602   1.401       .  A
C3601     Br3613   1.917       .  S
C3602      H3605   1.083       .  S
C3604      C3606   1.401       .  A
C3604      C3610   1.403       .  A
C3606      C3607   1.404       .  A
C3606      H3611   1.084       .  S
C3607      C3608   1.419       .  A
C3607     Br3615   1.920       .  S
C3608      C3609   1.413       .  A
C3609      C3610   1.397       .  A
C3609      H3612   1.083       .  S
C3610     Br3616   1.920       .  S
C3617      C3618   1.422       .  A
C3617      C3622   1.410       .  A
C3618      C3619   1.407       .  A
C3618     Br3634   1.922       .  S
C3619      C3620   1.404       .  A
C3619      H3623   1.083       .  S
C3620      C3624   1.504       .  S
C3620      C3621   1.413       .  A
C3621      C3622   1.410       .  A
C3621     Br3633   1.918       .  S
C3622      H3625   1.083       .  S
C3624      C3626   1.407       .  A
C3624      C3630   1.413       .  A
C3626      C3627   1.410       .  A
C3626      H3631   1.083       .  S
C3627      C3628   1.416       .  A
C3627     Br3635   1.919       .  S
C3628      C3629   1.408       .  A
C3629      C3630   1.406       .  A
C3629      H3632   1.084       .  S
C3630     Br3636   1.919       .  S
C3637      C3638   1.416       .  A
C3637      C3642   1.407       .  A
C3638      C3639   1.397       .  A
C3638     Br3654   1.916       .  S
C3639      C3640   1.398       .  A
C3639      H3643   1.084       .  S
C3640      C3644   1.472       .  S
C3640      C3641   1.405       .  A
C3641      C3642   1.398       .  A
C3641     Br3653   1.919       .  S
C3642      H3645   1.083       .  S
C3644      C3646   1.400       .  A
C3644      C3650   1.403       .  A
C3646      C3647   1.401       .  A
C3646      H3651   1.083       .  S
C3647      C3648   1.420       .  A
C3647     Br3655   1.922       .  S
C3648      C3649   1.408       .  A
C3649      C3650   1.392       .  A
C3649      H3652   1.083       .  S
C3650     Br3656   1.920       .  S
C3657      C3658   1.408       .  A
C3657      C3662   1.401       .  A
C3658      C3659   1.400       .  A
C3658     Br3674   1.919       .  S
C3659      C3660   1.403       .  A
C3659      H3663   1.085       .  S
C3660      C3664   1.470       .  S
C3660      C3661   1.405       .  A
C3661      C3662   1.394       .  A
C3661     Br3673   1.919       .  S
C3662      H3665   1.085       .  S
C3664      C3666   1.399       .  A
C3664      C3670   1.405       .  A
C3666      C3667   1.399       .  A
C3666      H3671   1.083       .  S
C3667      C3668   1.414       .  A
C3667     Br3675   1.920       .  S
C3668      C3669   1.406       .  A
C3669      C3670   1.395       .  A
C3669      H3672   1.083       .  S
C3670     Br3676   1.919       .  S
C3677      C3678   1.414       .  A
C3677      C3682   1.405       .  A
C3678      C3679   1.399       .  A
C3678     Br3694   1.923       .  S
C3679      C3680   1.403       .  A
C3679      H3683   1.083       .  S
C3680      C3684   1.484       .  S
C3680      C3681   1.410       .  A
C3681      C3682   1.399       .  A
C3681     Br3693   1.920       .  S
C3682      H3685   1.083       .  S
C3684      C3686   1.401       .  A
C3684      C3690   1.410       .  A
C3686      C3687   1.396       .  A
C3686      H3691   1.084       .  S
C3687      C3688   1.416       .  A
C3687     Br3695   1.923       .  S
C3688      C3689   1.407       .  A
C3689      C3690   1.403       .  A
C3689      H3692   1.083       .  S
C3690     Br3696   1.919       .  S
C3697      C3698   1.416       .  A
C3697      C3702   1.405       .  A
C3698      C3699   1.395       .  A
C3698     Br3714   1.923       .  S
C3699      C3700   1.400       .  A
C3699      H3703   1.083       .  S
C3700      C3704   1.480       .  S
C3700      C3701   1.410       .  A
C3701      C3702   1.400       .  A
C3701     Br3713   1.919       .  S
C3702      H3705   1.083       .  S
C3704      C3706   1.399       .  A
C3704      C3710   1.412       .  A
C3706      C3707   1.393       .  A
C3706      H3711   1.083       .  S
C3707      C3708   1.414       .  A
C3707     Br3715   1.923       .  S
C3708      C3709   1.404       .  A
C3709      C3710   1.402       .  A
C3709      H3712   1.083       .  S
C3710     Br3716   1.919       .  S
C3717      C3718   1.414       .  A
C3717      C3722   1.410       .  A
C3718      C3719   1.411       .  A
C3718     Br3734   1.917       .  S
C3719      C3720   1.407       .  A
C3719      H3723   1.084       .  S
C3720      C3724   1.496       .  S
C3720      C3721   1.409       .  A
C3721      C3722   1.401       .  A
C3721     Br3733   1.921       .  S
C3722      H3725   1.084       .  S
C3724      C3726   1.405       .  A
C3724      C3730   1.410       .  A
C3726      C3727   1.408       .  A
C3726      H3731   1.084       .  S
C3727      C3728   1.416       .  A
C3727     Br3735   1.919       .  S
C3728      C3729   1.407       .  A
C3729      C3730   1.405       .  A
C3729      H3732   1.083       .  S
C3730     Br3736   1.918       .  S
C3737      C3738   1.419       .  A
C3737      C3742   1.411       .  A
C3738      C3739   1.404       .  A
C3738     Br3754   1.920       .  S
C3739      C3740   1.402       .  A
C3739      H3743   1.084       .  S
C3740      C3744   1.487       .  S
C3740      C3741   1.407       .  A
C3741      C3742   1.402       .  A
C3741     Br3753   1.919       .  S
C3742      H3745   1.083       .  S
C3744      C3746   1.405       .  A
C3744      C3750   1.409       .  A
C3746      C3747   1.402       .  A
C3746      H3751   1.083       .  S
C3747      C3748   1.411       .  A
C3747     Br3755   1.919       .  S
C3748      C3749   1.405       .  A
C3749      C3750   1.403       .  A
C3749      H3752   1.083       .  S
C3750     Br3756   1.917       .  S
C3757      C3758   1.409       .  A
C3757      C3762   1.402       .  A
C3758      C3759   1.405       .  A
C3758     Br3774   1.918       .  S
C3759      C3760   1.407       .  A
C3759      H3763   1.083       .  S
C3760      C3764   1.489       .  S
C3760      C3761   1.410       .  A
C3761      C3762   1.400       .  A
C3761     Br3773   1.915       .  S
C3762      H3765   1.083       .  S
C3764      C3766   1.396       .  A
C3764      C3770   1.410       .  A
C3766      C3767   1.398       .  A
C3766      H3771   1.084       .  S
C3767      C3768   1.426       .  A
C3767     Br3775   1.924       .  S
C3768      C3769   1.410       .  A
C3769      C3770   1.408       .  A
C3769      H3772   1.083       .  S
C3770     Br3776   1.917       .  S
C3777      C3778   1.411       .  A
C3777      C3782   1.407       .  A
C3778      C3779   1.400       .  A
C3778     Br3794   1.920       .  S
C3779      C3780   1.405       .  A
C3779      H3783   1.083       .  S
C3780      C3784   1.481       .  S
C3780      C3781   1.407       .  A
C3781      C3782   1.400       .  A
C3781     Br3793   1.919       .  S
C3782      H3785   1.083       .  S
C3784      C3786   1.402       .  A
C3784      C3790   1.405       .  A
C3786      C3787   1.402       .  A
C3786      H3791   1.084       .  S
C3787      C3788   1.418       .  A
C3787     Br3795   1.921       .  S
C3788      C3789   1.408       .  A
C3789      C3790   1.397       .  A
C3789      H3792   1.084       .  S
C3790     Br3796   1.919       .  S
C3797      C3798   1.423       .  A
C3797      C3802   1.412       .  A
C3798      C3799   1.401       .  A
C3798     Br3814   1.924       .  S
C3799      C3800   1.400       .  A
C3799      H3803   1.084       .  S
C3800      C3804   1.494       .  S
C3800      C3801   1.409       .  A
C3801      C3802   1.409       .  A
C3801     Br3813   1.917       .  S
C3802      H3805   1.083       .  S
C3804      C3806   1.407       .  A
C3804      C3810   1.408       .  A
C3806      C3807   1.409       .  A
C3806      H3811   1.083       .  S
C3807      C3808   1.416       .  A
C3807     Br3815   1.920       .  S
C3808      C3809   1.408       .  A
C3809      C3810   1.401       .  A
C3809      H3812   1.084       .  S
C3810     Br3816   1.919       .  S
C3817      C3818   1.418       .  A
C3817      C3822   1.409       .  A
C3818      C3819   1.404       .  A
C3818     Br3834   1.922       .  S
C3819      C3820   1.402       .  A
C3819      H3823   1.084       .  S
C3820      C3824   1.492       .  S
C3820      C3821   1.410       .  A
C3821      C3822   1.407       .  A
C3821     Br3833   1.917       .  S
C3822      H3825   1.083       .  S
C3824      C3826   1.404       .  A
C3824      C3830   1.410       .  A
C3826      C3827   1.405       .  A
C3826      H3831   1.084       .  S
C3827      C3828   1.414       .  A
C3827     Br3835   1.919       .  S
C3828      C3829   1.407       .  A
C3829      C3830   1.405       .  A
C3829      H3832   1.083       .  S
C3830     Br3836   1.919       .  S
C3837      C3838   1.415       .  A
C3837      C3842   1.406       .  A
C3838      C3839   1.406       .  A
C3838     Br3854   1.919       .  S
C3839      C3840   1.404       .  A
C3839      H3843   1.083       .  S
C3840      C3844   1.477       .  S
C3840      C3841   1.405       .  A
C3841      C3842   1.392       .  A
C3841     Br3853   1.921       .  S
C3842      H3845   1.083       .  S
C3844      C3846   1.401       .  A
C3844      C3850   1.408       .  A
C3846      C3847   1.396       .  A
C3846      H3851   1.084       .  S
C3847      C3848   1.412       .  A
C3847     Br3855   1.922       .  S
C3848      C3849   1.405       .  A
C3849      C3850   1.402       .  A
C3849      H3852   1.083       .  S
C3850     Br3856   1.918       .  S
C3857      C3858   1.420       .  A
C3857      C3862   1.411       .  A
C3858      C3859   1.403       .  A
C3858     Br3874   1.922       .  S
C3859      C3860   1.400       .  A
C3859      H3863   1.084       .  S
C3860      C3864   1.479       .  S
C3860      C3861   1.404       .  A
C3861      C3862   1.399       .  A
C3861     Br3873   1.919       .  S
C3862      H3865   1.083       .  S
C3864      C3866   1.399       .  A
C3864      C3870   1.406       .  A
C3866      C3867   1.399       .  A
C3866      H3871   1.084       .  S
C3867      C3868   1.418       .  A
C3867     Br3875   1.922       .  S
C3868      C3869   1.409       .  A
C3869      C3870   1.401       .  A
C3869      H3872   1.083       .  S
C3870     Br3876   1.918       .  S
C3877      C3878   1.421       .  A
C3877      C3882   1.413       .  A
C3878      C3879   1.412       .  A
C3878     Br3894   1.920       .  S
C3879      C3880   1.406       .  A
C3879      H3883   1.083       .  S
C3880      C3884   1.494       .  S
C3880      C3881   1.405       .  A
C3881      C3882   1.401       .  A
C3881     Br3893   1.919       .  S
C3882      H3885   1.083       .  S
C3884      C3886   1.405       .  A
C3884      C3890   1.409       .  A
C3886      C3887   1.408       .  A
C3886      H3891   1.083       .  S
C3887      C3888   1.417       .  A
C3887     Br3895   1.920       .  S
C3888      C3889   1.409       .  A
C3889      C3890   1.405       .  A
C3889      H3892   1.083       .  S
C3890     Br3896   1.919       .  S
C3897      C3898   1.410       .  A
C3897      C3902   1.401       .  A
C3898      C3899   1.400       .  A
C3898     Br3914   1.921       .  S
C3899      C3900   1.402       .  A
C3899      H3903   1.083       .  S
C3900      C3904   1.474       .  S
C3900      C3901   1.408       .  A
C3901      C3902   1.396       .  A
C3901     Br3913   1.919       .  S
C3902      H3905   1.084       .  S
C3904      C3906   1.403       .  A
C3904      C3910   1.405       .  A
C3906      C3907   1.401       .  A
C3906      H3911   1.083       .  S
C3907      C3908   1.411       .  A
C3907     Br3915   1.918       .  S
C3908      C3909   1.406       .  A
C3909      C3910   1.394       .  A
C3909      H3912   1.084       .  S
C3910     Br3916   1.920       .  S
C3917      C3918   1.409       .  A
C3917      C3922   1.402       .  A
C3918      C3919   1.397       .  A
C3918     Br3934   1.921       .  S
C3919      C3920   1.403       .  A
C3919      H3923   1.083       .  S
C3920      C3924   1.476       .  S
C3920      C3921   1.408       .  A
C3921      C3922   1.397       .  A
C3921     Br3933   1.919       .  S
C3922      H3925   1.083       .  S
C3924      C3926   1.402       .  A
C3924      C3930   1.408       .  A
C3926      C3927   1.399       .  A
C3926      H3931   1.083       .  S
C3927      C3928   1.413       .  A
C3927     Br3935   1.920       .  S
C3928      C3929   1.403       .  A
C3929      C3930   1.396       .  A
C3929      H3932   1.083       .  S
C3930     Br3936   1.921       .  S
