geometry optimzed in LAMMPS
_audit_creation_date              2020-11-30 
_audit_creation_method            'lammps2cif' 
_symmetry_space_group_name_H-M    'P1' 
_symmetry_Int_Tables_number       1 
_symmetry_cell_setting            triclinic 
loop_ 
_symmetry_equiv_pos_as_xyz 
  x,y,z 
_cell_length_a                    46.2717385 
_cell_length_b                    46.28417529354832 
_cell_length_c                    46.21907820675182 
_cell_angle_alpha                 89.9894384248021 
_cell_angle_beta                  89.93529896780767 
_cell_angle_gamma                 89.95406659172632 
loop_ 
_atom_site_label 
_atom_site_type_symbol 
_atom_site_fract_x 
_atom_site_fract_y 
_atom_site_fract_z 
_atom_site_charge 
Zr1        Zr  0.42935404  0.17178205  0.22754889     2.17500
O2          O  0.42944413  0.22423776  0.23261143    -0.51100
O3          O  0.38631792  0.16474472  0.25709686    -0.74300
O4          O  0.39152468  0.19366926  0.19953139    -0.81100
O5          O  0.49630705  0.17387188  0.27354362    -0.82800
O6          O  0.37928610  0.16529543  0.16143361    -0.78500
O7          O  0.45236820  0.19525327  0.26881867    -0.90100
O8          O  0.38174856  0.11684626  0.26643192    -0.76100
O9          O  0.40293974  0.12978982  0.21410297    -0.85600
O10         O  0.44775550  0.13399166  0.25704727    -0.85200
O11         O  0.43819287  0.16561373  0.17648518    -0.72000
O12         O  0.47975700  0.16951059  0.21564297    -0.84100
Zr13       Zr  0.48175554  0.08139623  0.18122398     2.26400
Zr14       Zr  0.41185791  0.12268147  0.16357387     2.06300
Zr15       Zr  0.49780243  0.13062443  0.24429878     2.10000
Zr16       Zr  0.42191432  0.09195817  0.24316752     1.78800
O17         O  0.54512099  0.15310146  0.24916694    -0.92900
O18         O  0.37867244  0.06311885  0.23475828    -0.40800
O19         O  0.47243713  0.08739842  0.23191505    -0.77400
O20         O  0.43086618  0.08376259  0.19271544    -0.96100
O21         O  0.46229395  0.11922978  0.15211810    -0.89400
O22         O  0.50777703  0.12379065  0.19397577    -0.92200
C23         C  0.37277139  0.14305145  0.26788868     1.01500
C24         C  0.47759229  0.19318692  0.28028635     1.14500
C25         C  0.37642316  0.18835772  0.17698640     1.05200
O26         O  0.36353505  0.10214834  0.16685291    -0.94400
O27         O  0.41331910  0.07867210  0.13343562    -0.90100
O28         O  0.45536043  0.05569497  0.14428979    -0.83300
C29         C  0.43161746  0.05782329  0.13020097     1.11900
O30         O  0.48817635  0.21418962  0.16417059    -0.96300
Zr31       Zr  0.48825347  0.16151041  0.16513731     1.88900
O32         O  0.51207202  0.08741071  0.13854725    -0.73000
O33         O  0.40652395  0.13633936  0.11296621    -0.52300
O34         O  0.47266384  0.18130359  0.11881995    -0.96900
O35         O  0.53735217  0.17994437  0.17045993    -0.54200
O36         O  0.51398444  0.13514453  0.12793775    -0.73500
C37         C  0.51978125  0.10863298  0.12238346     0.98800
O38         O  0.48928536  0.02931553  0.18434845    -0.62300
O39         O  0.50010145  0.11140318  0.29330805    -0.57100
O40         O  0.52564163  0.06317207  0.20486888    -0.93800
O41         O  0.53510807  0.09406522  0.24180469    -0.92200
O42         O  0.43395834  0.08350280  0.29377037    -0.92600
O43         O  0.42566602  0.04048755  0.25339007    -0.91400
C44         C  0.54106854  0.07178025  0.22639120     1.17700
H45         H  0.44514034  0.13817983  0.27735627     0.33600
H46         H  0.42150827  0.06578546  0.18781229     0.44500
H47         H  0.52822155  0.12154410  0.19034874     0.38000
H48         H  0.43151658  0.18205787  0.16554238     0.34500
H49         H  0.36928203  0.06136791  0.25395119     0.26300
H50         H  0.38550353  0.13504979  0.10917712     0.32200
H51         H  0.46937043  0.16429212  0.10626942     0.38100
H52         H  0.41998479  0.09528478  0.30492244     0.32600
H53         H  0.50017273  0.09015854  0.29082399     0.31400
H54         H  0.55138829  0.14857605  0.26913983     0.33100
H55         H  0.54949130  0.16767248  0.15779228     0.32100
H56         H  0.43839050  0.03287414  0.23792934     0.36100
H57         H  0.46972875  0.02070033  0.18534117     0.28800
H58         H  0.41004709  0.22937319  0.24007697     0.33100
H59         H  0.50216143  0.21972754  0.14891673     0.35900
H60         H  0.51983564  0.11607334  0.30011061     0.28500
H61         H  0.49701359  0.02347989  0.16522471     0.41400
H62         H  0.35391860  0.11318532  0.18249241     0.31400
H63         H  0.36568400  0.07593880  0.22359342     0.39100
H64         H  0.54310824  0.17456611  0.19036342     0.30900
H65         H  0.41083647  0.15728153  0.11242198     0.31000
H66         H  0.43003437  0.23198015  0.21264575     0.31200
Zr67       Zr  0.08424168  0.18280578  0.48532817     2.17500
O68         O  0.03318991  0.18248087  0.49864965    -0.51100
O69         O  0.09237709  0.14041092  0.51568802    -0.74300
O70         O  0.05668947  0.14761392  0.45817073    -0.81100
O71         O  0.09381877  0.24720614  0.53517029    -0.82800
O72         O  0.08092337  0.13409721  0.41761259    -0.78500
O73         O  0.06436835  0.20901577  0.52694038    -0.90100
O74         O  0.13988859  0.12863386  0.51310760    -0.76100
O75         O  0.12233846  0.15424316  0.46544775    -0.85600
O76         O  0.12674270  0.19643032  0.51080519    -0.85200
O77         O  0.08514938  0.19416112  0.43430597    -0.72000
O78         O  0.08955485  0.23349351  0.47561921    -0.84100
Zr79       Zr  0.17224524  0.23071972  0.43026331     2.26400
Zr80       Zr  0.12416080  0.16545822  0.41480939     2.06300
Zr81       Zr  0.13289896  0.24660913  0.50039833     2.10000
Zr82       Zr  0.16488443  0.16873457  0.49035883     1.78800
O83         O  0.11834333  0.29677826  0.50710592    -0.92900
O84         O  0.19174118  0.12599706  0.47531682    -0.40800
O85         O  0.17188215  0.21913469  0.48088633    -0.77400
O86         O  0.16735057  0.17977160  0.43985655    -0.96100
O87         O  0.12992669  0.21595343  0.40532000    -0.89400
O88         O  0.13431591  0.25913645  0.45011807    -0.92200
C89         C  0.11376620  0.12345635  0.52085667     1.01500
C90         C  0.07149565  0.23189558  0.54106611     1.14500
C91         C  0.05911320  0.13249432  0.43503826     1.05200
O92         O  0.14026355  0.11560975  0.40956926    -0.94400
O93         O  0.16559867  0.16482446  0.38062644    -0.90100
O94         O  0.19184497  0.20544774  0.38930115    -0.83300
C95         C  0.18709374  0.18195059  0.37547386     1.11900
O96         O  0.04061746  0.25249807  0.43278333    -0.96300
Zr97       Zr  0.09214154  0.24465605  0.42487567     1.88900
O98         O  0.16393850  0.26129423  0.38793178    -0.73000
O99         O  0.10250168  0.16870536  0.36693509    -0.52300
O100        O  0.06317560  0.23296718  0.38247971    -0.96900
O101        O  0.08123693  0.29537480  0.43434500    -0.54200
O102        O  0.11564453  0.26902506  0.38409304    -0.73500
C103        C  0.14172215  0.27163087  0.37475274     0.98800
O104        O  0.22504443  0.22992131  0.42980821    -0.62300
O105        O  0.15520757  0.24439279  0.54807895    -0.57100
O106        O  0.19313366  0.27409687  0.45156608    -0.93800
O107        O  0.17543965  0.27672398  0.49746176    -0.92200
O108        O  0.17985322  0.17440233  0.54060459    -0.92600
O109        O  0.21720824  0.17184352  0.49508562    -0.91400
C110        C  0.19235118  0.28504304  0.47711457     1.17700
H111        H  0.12464351  0.19299100  0.53130437     0.33600
H112        H  0.18388827  0.16945649  0.43238961     0.44500
H113        H  0.13783042  0.27952999  0.44744231     0.38000
H114        H  0.06710621  0.18904495  0.42520264     0.34500
H115        H  0.19457088  0.11470963  0.49330308     0.26300
H116        H  0.10704421  0.14994798  0.35769342     0.32200
H117        H  0.07738585  0.22831564  0.36714066     0.38100
H118        H  0.16494926  0.16428291  0.55216030     0.32600
H119        H  0.17599163  0.24098140  0.54425490     0.31400
H120        H  0.09696039  0.29647748  0.50770985     0.33100
H121        H  0.09800538  0.30632253  0.42682988     0.32100
H122        H  0.22394590  0.17896065  0.47603424     0.36100
H123        H  0.23093764  0.23458763  0.44985510     0.28800
H124        H  0.02894942  0.16244783  0.50488479     0.33100
H125        H  0.03470952  0.26730062  0.41848283     0.35900
H126        H  0.15425397  0.26446698  0.55542487     0.28500
H127        H  0.23041146  0.20931413  0.42766286     0.41400
H128        H  0.16152922  0.11636203  0.41180108     0.31400
H129        H  0.17768735  0.11456608  0.46397539     0.39100
H130        H  0.08249379  0.29735269  0.45562825     0.30900
H131        H  0.08138252  0.16811129  0.37035585     0.31000
H132        H  0.02236309  0.18513635  0.48037455     0.31200
Zr133      Zr  0.23441477  0.42999666  0.16161509     2.17500
O134        O  0.25201064  0.42756289  0.21128605    -0.51100
O135        O  0.26153893  0.38603674  0.15105786    -0.74300
O136        O  0.20673680  0.39566166  0.19040307    -0.81100
O137        O  0.28387707  0.49493533  0.15126081    -0.82800
O138        O  0.16480313  0.38398025  0.16783357    -0.78500
O139        O  0.27730539  0.45567250  0.17983780    -0.90100
O140        O  0.26282413  0.37771428  0.10267262    -0.76100
O141        O  0.21275039  0.40248866  0.12386142    -0.85600
O142        O  0.25845791  0.44379390  0.11821541    -0.85200
O143        O  0.18375248  0.44253522  0.16289925    -0.72000
O144        O  0.22554953  0.48092378  0.15689607    -0.84100
Zr145      Zr  0.17726915  0.47985010  0.07535126     2.26400
Zr146      Zr  0.16236167  0.41476406  0.12433023     2.06300
Zr147      Zr  0.24877080  0.49426698  0.11264732     2.10000
Zr148      Zr  0.23641176  0.41696620  0.08043715     1.78800
O149        O  0.25677981  0.54394006  0.12800829    -0.92900
O150        O  0.22058386  0.37266136  0.05680978    -0.40800
O151        O  0.22766351  0.46754344  0.07399730    -0.77400
O152        O  0.18605891  0.42869567  0.08007785    -0.96100
O153        O  0.15357311  0.46538468  0.11873480    -0.89400
O154        O  0.19879661  0.50748268  0.11291229    -0.92200
C155        C  0.26853381  0.37081518  0.12887787     1.01500
C156        C  0.29081074  0.47903797  0.17288880     1.14500
C157        C  0.18293400  0.38145146  0.18889765     1.05200
O158        O  0.15549041  0.36482886  0.10926161    -0.94400
O159        O  0.12717081  0.41391965  0.08423250    -0.90100
O160        O  0.13482688  0.45480741  0.05795666    -0.83300
C161        C  0.12128750  0.43115063  0.06304203     1.11900
O162        O  0.18445398  0.50055293  0.20745812    -0.96300
Zr163      Zr  0.17514396  0.49307231  0.15615813     1.88900
O164        O  0.13791439  0.51327560  0.08596785    -0.73000
O165        O  0.11516276  0.41934722  0.14722020    -0.52300
O166        O  0.13318654  0.48281906  0.18630819    -1.05300
O167        O  0.18594350  0.54347456  0.16693900    -0.54200
O168        O  0.13449503  0.51855024  0.13459222    -0.73500
C169        C  0.12544623  0.52325171  0.10875736     0.98800
O170        O  0.17411210  0.48010485  0.02252768    -0.62300
O171        O  0.29571946  0.49124502  0.08889064    -0.57100
O172        O  0.19950549  0.52204398  0.05218215    -0.93800
O173        O  0.24487234  0.52564089  0.07086934    -0.92200
O174        O  0.28580159  0.42401502  0.06361362    -0.92600
O175        O  0.23683412  0.41977546  0.02781510    -0.91400
C176        C  0.22494057  0.53327788  0.05316568     1.17700
H177        H  0.27894926  0.43995888  0.11942878     0.33600
H178        H  0.17790026  0.41849126  0.06381170     0.44500
H179        H  0.19635681  0.52792931  0.10953119     0.38000
H180        H  0.17512383  0.43772570  0.18130225     0.34500
H181        H  0.23863941  0.36282513  0.05081133     0.26300
H182        H  0.10774530  0.39931657  0.14828906     0.32200
H183        H  0.12648204  0.50197259  0.19313148     0.38100
H184        H  0.29092327  0.40563079  0.05392181     0.32600
H185        H  0.29132064  0.49041769  0.06794968     0.31400
H186        H  0.27551268  0.54942838  0.11921877     0.33100
H187        H  0.17759306  0.55474261  0.15076824     0.32100
H188        H  0.21934369  0.43107227  0.02287714     0.36100
H189        H  0.19432264  0.48180010  0.01566749     0.28800
H190        H  0.25879921  0.40743879  0.21392184     0.33100
H191        H  0.19988443  0.48651224  0.21224669     0.35900
H192        H  0.30454606  0.51050859  0.09178350     0.28500
H193        H  0.16860665  0.46023444  0.01685238     0.41400
H194        H  0.17388815  0.35506981  0.11419245     0.31400
H195        H  0.21284531  0.36053576  0.07267054     0.39100
H196        H  0.20711474  0.54515152  0.16433378     0.30900
H197        H  0.11940256  0.42458773  0.16754533     0.31000
H198        H  0.23474236  0.42939007  0.22381982     0.31200
Zr199      Zr  0.97902322  0.41846244  0.82216143     2.17500
O200        O  0.98463356  0.47084125  0.82299981    -0.51100
O201        O  0.01209595  0.40840967  0.86191137    -0.74300
O202        O  0.95455909  0.43986965  0.86338291    -0.81100
O203        O  0.02120736  0.41983074  0.75247890    -0.82800
O204        O  0.91465638  0.41349166  0.87462013    -0.78500
O205        O  0.01988768  0.44079324  0.79696946    -0.90100
O206        O  0.00897179  0.36036452  0.87124054    -0.76100
O207        O  0.96310611  0.37694950  0.84809116    -0.85600
O208        O  0.00527302  0.37891307  0.80222043    -0.85200
O209        O  0.92757261  0.41570707  0.81435829    -0.72000
O210        O  0.96586514  0.41745568  0.77195010    -0.84100
Zr211      Zr  0.92520822  0.33168296  0.76986963     2.26400
Zr212      Zr  0.91225444  0.37317988  0.84011309     2.06300
Zr213      Zr  0.99119931  0.37696475  0.75242697     2.10000
Zr214      Zr  0.98912868  0.33754560  0.82808034     1.78800
O215        O  0.99554623  0.39678492  0.70379191    -0.92900
O216        O  0.97849424  0.30400780  0.86730405    -0.40800
O217        O  0.97632455  0.33464027  0.77784173    -0.77400
O218        O  0.93812076  0.33250410  0.82039705    -0.96100
O219        O  0.89938936  0.37135041  0.79009054    -0.89400
O220        O  0.94041023  0.37330276  0.74394161    -0.92200
C221        C  0.01674624  0.38615800  0.87788068     1.01500
C222        C  0.02961892  0.43875451  0.77094335     1.14500
C223        C  0.93181537  0.43505930  0.87858123     1.05200
O224        O  0.91293178  0.35093694  0.88786623    -0.94400
O225        O  0.87888905  0.33200480  0.83862609    -0.90100
O226        O  0.88642945  0.30846437  0.79604422    -0.83300
C227        C  0.87352253  0.31163619  0.82038809     1.11900
O228        O  0.91755614  0.46550448  0.76190115    -0.96300
Zr229      Zr  0.91492834  0.41293376  0.76426852     1.88900
O230        O  0.88230960  0.34161699  0.74093306    -0.73000
O231        O  0.86352528  0.39225805  0.84592988    -0.52300
O232        O  0.87063588  0.43638390  0.78058711    -0.96900
O233        O  0.92263222  0.42889829  0.71454368    -0.54200
O234        O  0.87517942  0.39007728  0.73909793    -0.73500
C235        C  0.86768935  0.36404582  0.73341385     0.98800
O236        O  0.92627026  0.27940403  0.76326875    -0.62300
O237        O  0.03934300  0.35581904  0.74977477    -0.57100
O238        O  0.94625670  0.31227096  0.72528813    -0.93800
O239        O  0.98552287  0.34021019  0.71543439    -0.92200
O240        O  0.04069457  0.33002314  0.82023262    -0.92600
O241        O  0.00059879  0.28710888  0.81820963    -0.91400
C242        C  0.96816799  0.31936150  0.70966302     1.17700
H243        H  0.02584902  0.38181357  0.80425814     0.33600
H244        H  0.93209788  0.31481420  0.82970144     0.44500
H245        H  0.93623242  0.37135432  0.72354431     0.38000
H246        H  0.91809315  0.43268875  0.82194390     0.34500
H247        H  0.99709099  0.30155506  0.87761416     0.26300
H248        H  0.85932911  0.39029801  0.86685420     0.32200
H249        H  0.85994205  0.44119729  0.76266922     0.38100
H250        H  0.05010977  0.33674530  0.83823117     0.32600
H251        H  0.03634027  0.33506427  0.75399331     0.31400
H252        H  0.01456583  0.38998643  0.69668516     0.33100
H253        H  0.91399432  0.41374444  0.70216997     0.32100
H254        H  0.98962562  0.28232940  0.80046570     0.36100
H255        H  0.92723112  0.27120664  0.78303907     0.28800
H256        H  0.99202015  0.47556424  0.84253468     0.33100
H257        H  0.90355259  0.47139545  0.74681842     0.35900
H258        H  0.04446620  0.35639994  0.72897849     0.28500
H259        H  0.90683229  0.27416132  0.75602956     0.41400
H260        H  0.93081875  0.35825699  0.89702896     0.31400
H261        H  0.96629576  0.31522306  0.88086493     0.39100
H262        H  0.94372297  0.42710304  0.71138842     0.30900
H263        H  0.86538959  0.41332583  0.84271483     0.31000
H264        H  0.96471308  0.47866867  0.82255668     0.31200
Zr265      Zr  0.76848241  0.93039138  0.33387667     2.17500
O266        O  0.75422352  0.92952044  0.28308031    -0.51100
O267        O  0.74304173  0.88488447  0.34140212    -0.74300
O268        O  0.79818035  0.89822515  0.30553660    -0.81100
O269        O  0.71512199  0.99166461  0.34453762    -0.82800
O270        O  0.83942645  0.88645760  0.32946128    -0.78500
O271        O  0.72473721  0.95353977  0.31508602    -0.90100
O272        O  0.73874487  0.87616370  0.38952011    -0.76100
O273        O  0.78908687  0.90225833  0.37169091    -0.85600
O274        O  0.74207179  0.94231101  0.37636855    -0.85200
O275        O  0.81880382  0.94416610  0.33515067    -0.72000
O276        O  0.77566887  0.98147620  0.33979002    -0.84100
Zr277      Zr  0.82002335  0.97922414  0.42308695     2.26400
Zr278      Zr  0.83905027  0.91584884  0.37395877     2.06300
Zr279      Zr  0.75010087  0.99283591  0.38326728     2.10000
Zr280      Zr  0.76311870  0.91494920  0.41429446     1.78800
O281        O  0.73970272  0.04210413  0.36807643    -0.92900
O282        O  0.78228004  0.87065073  0.43537900    -0.40800
O283        O  0.77003390  0.96559714  0.42219035    -0.77400
O284        O  0.81273999  0.92799909  0.41734633    -0.96100
O285        O  0.84606948  0.96655683  0.38065236    -0.89400
O286        O  0.79962425  0.00743373  0.38528401    -0.92200
C287        C  0.73494700  0.86937100  0.36297506     1.01500
C288        C  0.70963740  0.97567840  0.32255410     1.14500
C289        C  0.82230425  0.88476589  0.30750733     1.05200
O290        O  0.84824176  0.86561811  0.38664816    -0.94400
O291        O  0.87136962  0.91379744  0.41631719    -0.90100
O292        O  0.85860554  0.95174056  0.44484665    -0.83300
C293        C  0.87403081  0.92939483  0.43931422     1.11900
O294        O  0.81264140  0.00455712  0.29265134    -0.96300
Zr295      Zr  0.82576953  0.99479051  0.34285893     1.88900
O296        O  0.86186407  0.00970906  0.41409870    -0.73000
O297        O  0.88709692  0.92439993  0.35413753    -0.52300
O298        O  0.86592120  0.98538696  0.30999185    -0.96900
O299        O  0.81930613  0.04688821  0.33729495    -0.54200
O300        O  0.86818640  0.01596742  0.36591647    -0.73500
C301        C  0.87630182  0.01915025  0.39232117     0.98800
O302        O  0.82163223  0.98623066  0.47536594    -0.62300
O303        O  0.70300668  0.98872537  0.40644750    -0.57100
O304        O  0.79663501  0.02043147  0.44639368    -0.93800
O305        O  0.75238305  0.02379851  0.42534662    -0.92200
O306        O  0.71341715  0.91855718  0.43147742    -0.92600
O307        O  0.75994409  0.91540533  0.46687244    -0.91400
C308        C  0.77117378  0.03134954  0.44427143     1.17700
H309        H  0.72177173  0.93793193  0.37424714     0.33600
H310        H  0.81983027  0.91731441  0.43379270     0.44500
H311        H  0.80127459  0.02780316  0.38945222     0.38000
H312        H  0.82841102  0.94004655  0.31706814     0.34500
H313        H  0.76500275  0.85922880  0.44074187     0.26300
H314        H  0.89603526  0.93881158  0.36719392     0.32200
H315        H  0.88079063  0.97595405  0.32213937     0.38100
H316        H  0.70464349  0.89943803  0.42764820     0.32600
H317        H  0.70727841  0.98235609  0.42644146     0.31400
H318        H  0.75289274  0.04547543  0.35154038     0.33100
H319        H  0.83386236  0.05274032  0.32272235     0.32100
H320        H  0.77592131  0.92817967  0.47311765     0.36100
H321        H  0.82041196  0.96661033  0.48381785     0.28800
H322        H  0.75086920  0.90893465  0.27828727     0.33100
H323        H  0.82753272  0.01786832  0.28498626     0.35900
H324        H  0.69615094  0.00889033  0.40855059     0.28500
H325        H  0.84150423  0.99290106  0.47964713     0.41400
H326        H  0.83087799  0.85504659  0.38000484     0.31400
H327        H  0.79084016  0.86004111  0.41885593     0.39100
H328        H  0.82645624  0.05555158  0.35550741     0.30900
H329        H  0.89779800  0.90628946  0.35802819     0.31000
H330        H  0.77171318  0.93506859  0.27205144     0.31200
Zr331      Zr  0.07177267  0.83121634  0.73243018     2.17500
O332        O  0.07370276  0.77957418  0.74291678    -0.51100
O333        O  0.11478119  0.84234626  0.76075464    -0.74300
O334        O  0.10899662  0.80669023  0.70479034    -0.81100
O335        O  0.00796606  0.83771932  0.78381423    -0.82800
O336        O  0.11891632  0.83217457  0.66385495    -0.78500
O337        O  0.04772498  0.81015389  0.77518424    -0.90100
O338        O  0.12029353  0.89091443  0.76519892    -0.76100
O339        O  0.09772386  0.87185120  0.71424554    -0.85600
O340        O  0.05504824  0.87205113  0.75870867    -0.85200
O341        O  0.06087265  0.83338719  0.68142247    -0.72000
O342        O  0.02099874  0.83376806  0.72221874    -0.84100
Zr343      Zr  0.01862548  0.91831439  0.67929897     2.26400
Zr344      Zr  0.08703944  0.87476490  0.66365872     2.06300
Zr345      Zr  0.00469464  0.87547091  0.74794132     2.10000
Zr346      Zr  0.08011720  0.91273105  0.74003798     1.78800
O347        O  0.95803237  0.85257065  0.75609898    -0.92900
O348        O  0.12247982  0.93989768  0.72458483    -0.40800
O349        O  0.02958154  0.91674997  0.72998895    -0.77400
O350        O  0.06963608  0.91636290  0.68958438    -0.96100
O351        O  0.03642623  0.87769518  0.65325061    -0.89400
O352        O  0.99270617  0.87790478  0.69758203    -0.92200
C353        C  0.12859851  0.86485670  0.76934975     1.01500
C354        C  0.02481235  0.81653796  0.78979722     1.14500
C355        C  0.12269043  0.81045873  0.68093028     1.05200
O356        O  0.13602620  0.89402018  0.66285192    -0.94400
O357        O  0.08617517  0.91702715  0.63120557    -0.90100
O358        O  0.04459121  0.94176372  0.64032059    -0.83300
C359        C  0.06855750  0.93823094  0.62681043     1.11900
O360        O  0.00783153  0.78498857  0.67650665    -0.96300
Zr361      Zr  0.01039504  0.83734055  0.67155745     1.88900
O362        O  0.98855404  0.90784040  0.63735875    -0.73000
O363        O  0.08961475  0.85616401  0.61443046    -0.52300
O364        O  0.02566372  0.81275997  0.62745497    -0.96900
O365        O  0.96101390  0.82144074  0.68069794    -0.54200
O366        O  0.98246788  0.85933674  0.63292277    -0.73500
C367        C  0.97873972  0.88539125  0.62427795     0.98800
O368        O  0.01157747  0.97058857  0.67901283    -0.62300
O369        O  0.00432850  0.90131053  0.79388038    -0.57100
O370        O  0.97534250  0.93801637  0.70245575    -0.93800
O371        O  0.96988669  0.91433648  0.74524449    -0.92200
O372        O  0.07234423  0.92545970  0.79058444    -0.92600
O373        O  0.07412394  0.96465263  0.74622073    -0.91400
C374        C  0.96266697  0.93386064  0.72692029     1.17700
H375        H  0.05858973  0.86974238  0.77915823     0.33600
H376        H  0.07910215  0.93374053  0.68301561     0.44500
H377        H  0.97216793  0.88019583  0.69472941     0.38000
H378        H  0.06700192  0.81596057  0.67173192     0.34500
H379        H  0.13209065  0.94580175  0.74277757     0.26300
H380        H  0.11046519  0.85632962  0.60958207     0.32200
H381        H  0.02797511  0.82832742  0.61294256     0.38100
H382        H  0.09132995  0.93256898  0.79740481     0.32600
H383        H  0.98551264  0.89628657  0.80275973     0.31400
H384        H  0.94536561  0.86023480  0.74064973     0.33100
H385        H  0.94843197  0.83709856  0.67332926     0.32100
H386        H  0.05657252  0.96953339  0.73499192     0.36100
H387        H  0.03121865  0.97904735  0.67978739     0.28800
H388        H  0.09404333  0.77537726  0.74808557     0.33100
H389        H  0.99399597  0.77846496  0.66154502     0.35900
H390        H  0.01880045  0.89140832  0.80614191     0.28500
H391        H  0.00423486  0.97534537  0.65946342     0.41400
H392        H  0.14655012  0.88292087  0.67783157     0.31400
H393        H  0.13556911  0.92522559  0.71612074     0.39100
H394        H  0.95884188  0.82232288  0.70198525     0.30900
H395        H  0.08464806  0.83542626  0.61612203     0.31000
H396        H  0.07059704  0.76982663  0.72410342     0.31200
Zr397      Zr  0.42297160  0.81715138  0.97772056     2.17500
O398        O  0.47567830  0.81569207  0.97792561    -0.51100
O399        O  0.41641344  0.85802045  0.01062996    -0.74300
O400        O  0.44344637  0.85811049  0.95312648    -0.81100
O401        O  0.42208816  0.75015518  0.02366789    -0.82800
O402        O  0.41616688  0.86968391  0.91398419    -0.78500
O403        O  0.44587390  0.79281747  0.01854525    -0.90100
O404        O  0.36827791  0.86402845  0.01825707    -0.76100
O405        O  0.38154078  0.84449411  0.96427503    -0.85600
O406        O  0.38447765  0.79853799  0.00617386    -0.85200
O407        O  0.41745701  0.80949203  0.92638019    -0.72000
O408        O  0.41961621  0.76696558  0.96482859    -0.84100
Zr409      Zr  0.33234372  0.76768669  0.92920822     2.26400
Zr410      Zr  0.37491736  0.83648611  0.91354403     2.06300
Zr411      Zr  0.37995340  0.74890130  0.99265955     2.10000
Zr412      Zr  0.34316936  0.82563313  0.99268172     1.78800
O413        O  0.40020988  0.70043699  0.99602122    -0.92900
O414        O  0.31513059  0.86883535  0.98186468    -0.40800
O415        O  0.33779967  0.77559906  0.98013797    -0.77400
O416        O  0.33553286  0.81804947  0.94199986    -0.96100
O417        O  0.37089928  0.78665552  0.90094595    -0.89400
O418        O  0.37386933  0.74033068  0.94203916    -0.92200
C419        C  0.39472327  0.87170453  0.02145741     1.01500
C420        C  0.44219511  0.76800834  0.03055452     1.14500
C421        C  0.43819931  0.87330054  0.93059252     1.05200
O422        O  0.35542672  0.88534837  0.91281938    -0.94400
O423        O  0.33135832  0.83661966  0.88327177    -0.90100
O424        O  0.30749098  0.79474294  0.89237738    -0.83300
C425        C  0.31021234  0.81895620  0.87924532     1.11900
O426        O  0.46502787  0.75632713  0.91460557    -0.96300
Zr427      Zr  0.41241491  0.75951306  0.91398008     1.88900
O428        O  0.33821789  0.74010424  0.88467967    -0.73000
O429        O  0.39091265  0.84000614  0.86344215    -0.52300
O430        O  0.43320087  0.77466782  0.86792018    -0.96900
O431        O  0.42744617  0.70918563  0.91842771    -0.54200
O432        O  0.38621151  0.73585063  0.87517109    -0.73500
C433        C  0.35952869  0.73189479  0.86879387     0.98800
O434        O  0.27992984  0.76537784  0.93522484    -0.62300
O435        O  0.35972388  0.74736993  0.04129540    -0.57100
O436        O  0.31427561  0.72232350  0.94937593    -0.93800
O437        O  0.33999676  0.71474017  0.99052701    -0.92200
O438        O  0.33507624  0.81637332  0.04394732    -0.92600
O439        O  0.29192360  0.82004908  0.00325653    -0.91400
C440        C  0.31947239  0.70838308  0.97289711     1.17700
H441        H  0.38837370  0.80064793  0.02658517     0.33600
H442        H  0.31779753  0.82785009  0.93704675     0.44500
H443        H  0.37110388  0.72003964  0.93803902     0.38000
H444        H  0.43413244  0.81663419  0.91604216     0.34500
H445        H  0.31283416  0.87873679  0.00071873     0.26300
H446        H  0.38601266  0.86000766  0.85760859     0.32200
H447        H  0.41708301  0.78415385  0.85752241     0.38100
H448        H  0.32570057  0.83415180  0.05132483     0.32600
H449        H  0.33884954  0.75131811  0.03868271     0.31400
H450        H  0.39305949  0.69284377  0.01473454     0.33100
H451        H  0.41116419  0.69762214  0.91078113     0.32100
H452        H  0.28409351  0.80955264  0.98633621     0.36100
H453        H  0.27677115  0.76128221  0.95602328     0.28800
H454        H  0.48194830  0.83443074  0.98611989     0.33100
H455        H  0.47020292  0.74340436  0.89832559     0.35900
H456        H  0.36066070  0.72676690  0.04696475     0.28500
H457        H  0.27296153  0.78548437  0.93299053     0.41400
H458        H  0.36369452  0.89477654  0.93015809     0.31400
H459        H  0.32852586  0.88133122  0.97080661     0.39100
H460        H  0.42739502  0.70534235  0.93949700     0.30900
H461        H  0.41228301  0.83975127  0.86439054     0.31000
H462        H  0.48150772  0.81639203  0.95730780     0.31200
Zr463      Zr  0.31936814  0.51884385  0.57925386     2.17500
O464        O  0.32124932  0.51190587  0.52693788    -0.51100
O465        O  0.36225700  0.49004461  0.58946521    -0.74300
O466        O  0.35801153  0.54585346  0.55759688    -0.81100
O467        O  0.25364083  0.47117957  0.57767923    -0.82800
O468        O  0.36822124  0.58575587  0.58424344    -0.78500
O469        O  0.29861440  0.47551014  0.55817987    -0.90100
O470        O  0.36495708  0.48202260  0.63783265    -0.76100
O471        O  0.34423347  0.53570844  0.62086650    -0.85600
O472        O  0.30100238  0.49106401  0.61836446    -0.85200
O473        O  0.30811386  0.56964858  0.58169006    -0.72000
O474        O  0.26852760  0.52891485  0.57984854    -0.84100
Zr475      Zr  0.26405020  0.56813488  0.66621464     2.26400
Zr476      Zr  0.33304641  0.58609534  0.62425131     2.06300
Zr477      Zr  0.25048015  0.50201271  0.61991491     2.10000
Zr478      Zr  0.32543501  0.50819592  0.66004136     1.78800
O479        O  0.20305154  0.49823551  0.59744767    -0.92900
O480        O  0.36880614  0.52012498  0.68737488    -0.40800
O481        O  0.27457137  0.51752776  0.66292720    -0.77400
O482        O  0.31511041  0.55857510  0.66461373    -0.96100
O483        O  0.28236076  0.59551411  0.62664571    -0.89400
O484        O  0.23885597  0.55204226  0.62441589    -0.92200
C485        C  0.37467785  0.47957637  0.61200413     1.01500
C486        C  0.27354465  0.46376312  0.55980102     1.14500
C487        C  0.37256770  0.56880076  0.56252772     1.05200
O488        O  0.38114707  0.59033524  0.64511345    -0.94400
O489        O  0.32979637  0.61837502  0.66630472    -0.90100
O490        O  0.28808478  0.60780047  0.69004458    -0.83300
C491        C  0.31150126  0.62228871  0.68701822     1.11900
O492        O  0.25219000  0.57326210  0.53280998    -0.96300
Zr493      Zr  0.25726226  0.57914384  0.58498644     1.88900
O494        O  0.23474405  0.61075930  0.65764140    -0.73000
O495        O  0.33266273  0.63511262  0.60507479    -0.52300
O496        O  0.27181042  0.62359428  0.56068694    -0.96900
O497        O  0.20753228  0.57069990  0.56970212    -0.54200
O498        O  0.23036452  0.61742553  0.60904468    -0.73500
C499        C  0.22601105  0.62492119  0.63542798     0.98800
O500        O  0.26124521  0.56550023  0.71893952    -0.62300
O501        O  0.24717390  0.45305397  0.63890001    -0.57100
O502        O  0.21903726  0.54607149  0.68334402    -0.93800
O503        O  0.21447179  0.50442670  0.65784153    -0.92200
O504        O  0.31387042  0.45842362  0.67258221    -0.92600
O505        O  0.32228753  0.50429846  0.71247401    -0.91400
C506        C  0.20613551  0.52211185  0.67756076     1.17700
H507        H  0.30440546  0.47066007  0.61555228     0.33600
H508        H  0.32413932  0.56493089  0.68232188     0.44500
H509        H  0.21828941  0.55497057  0.62644586     0.38000
H510        H  0.31507359  0.57961104  0.56469925     0.34500
H511        H  0.37855188  0.50139047  0.69087497     0.26300
H512        H  0.35183053  0.64305533  0.61026655     0.32200
H513        H  0.27281814  0.63832629  0.57618418     0.38100
H514        H  0.33267245  0.44961602  0.67775512     0.32600
H515        H  0.25199398  0.45495290  0.65967426     0.31400
H516        H  0.19413975  0.48090910  0.60628626     0.33100
H517        H  0.19518978  0.57833029  0.58545153     0.32100
H518        H  0.30183929  0.50865102  0.71704637     0.36100
H519        H  0.25579438  0.54529890  0.72337818     0.28800
H520        H  0.34135608  0.50601675  0.52251055     0.33100
H521        H  0.24108976  0.59030731  0.52615662     0.35900
H522        H  0.22628118  0.44844400  0.63865042     0.28500
H523        H  0.28149860  0.56681713  0.72572071     0.41400
H524        H  0.37878260  0.58442088  0.66556576     0.31400
H525        H  0.38143550  0.53017019  0.67330651     0.39100
H526        H  0.20501267  0.54948687  0.57062224     0.30900
H527        H  0.33338348  0.63277554  0.58379282     0.31000
H528        H  0.31920399  0.53148332  0.51853563     0.31200
Zr529      Zr  0.51706183  0.58307017  0.32003857     2.17500
O530        O  0.51330511  0.53061541  0.31644796    -0.51100
O531        O  0.48718167  0.59056640  0.36285552    -0.74300
O532        O  0.54339052  0.55930225  0.35824528    -0.81100
O533        O  0.46340244  0.59219247  0.25934384    -0.82800
O534        O  0.58468544  0.58369942  0.36863353    -0.78500
O535        O  0.47337566  0.56312680  0.29779453    -0.90100
O536        O  0.48461541  0.63881088  0.37180438    -0.76100
O537        O  0.53555062  0.62240410  0.34771323    -0.85600
O538        O  0.49025688  0.62439519  0.30544154    -0.85200
O539        O  0.56783856  0.58565248  0.30879911    -0.72000
O540        O  0.52626934  0.58747526  0.26912717    -0.84100
Zr541      Zr  0.56842737  0.67213547  0.26999668     2.26400
Zr542      Zr  0.58588088  0.62585875  0.33624534     2.06300
Zr543      Zr  0.50001191  0.62952035  0.25495507     2.10000
Zr544      Zr  0.50901918  0.66366530  0.33247711     1.78800
O545        O  0.49192453  0.60731456  0.20793054    -0.92900
O546        O  0.52458881  0.68968620  0.37552579    -0.40800
O547        O  0.51787972  0.66978817  0.28172152    -0.77400
O548        O  0.55930067  0.66796362  0.32121789    -0.96100
O549        O  0.59493231  0.63096849  0.28564268    -0.89400
O550        O  0.55021570  0.63262754  0.24249920    -0.92200
C551        C  0.47936764  0.61236535  0.37824497     1.01500
C552        C  0.45783894  0.57064405  0.27595932     1.14500
C553        C  0.56701928  0.56248127  0.37233691     1.05200
O554        O  0.59216323  0.64325880  0.38555950    -0.94400
O555        O  0.61894037  0.66737199  0.33579181    -0.90100
O556        O  0.60884232  0.69334689  0.29526773    -0.83300
C557        C  0.62320384  0.68887506  0.31857767     1.11900
O558        O  0.57111902  0.53967029  0.25232744    -0.96300
Zr559      Zr  0.57683481  0.59168560  0.25815538     1.88900
O560        O  0.61150666  0.66415840  0.24058544    -0.73000
O561        O  0.63421693  0.60517151  0.33340562    -0.52300
O562        O  0.61929678  0.56299113  0.27008011    -0.96900
O563        O  0.56934578  0.58136529  0.20699304    -0.54200
O564        O  0.61754115  0.61575867  0.23475051    -0.73500
C565        C  0.62584321  0.64207295  0.23163372     0.98800
O566        O  0.56661817  0.72489896  0.26901262    -0.62300
O567        O  0.45394730  0.65495935  0.25270088    -0.57100
O568        O  0.54667826  0.69201920  0.22595471    -0.93800
O569        O  0.50367511  0.66885049  0.22060657    -0.92200
O570        O  0.45837073  0.67709132  0.32754681    -0.92600
O571        O  0.50220319  0.71568676  0.32849013    -0.91400
C572        C  0.52224422  0.68809827  0.21322081     1.17700
H573        H  0.46988541  0.62192885  0.30928607     0.33600
H574        H  0.56620048  0.68493343  0.33118761     0.44500
H575        H  0.55296196  0.63557351  0.22197886     0.38000
H576        H  0.57741149  0.56804133  0.31457948     0.34500
H577        H  0.50641289  0.69548629  0.38526513     0.26300
H578        H  0.64333987  0.61034149  0.35206443     0.32200
H579        H  0.63276129  0.57680469  0.27929539     0.38100
H580        H  0.45261382  0.68400278  0.34699623     0.32600
H581        H  0.44203253  0.64353840  0.23908803     0.31400
H582        H  0.51098640  0.59944613  0.20227150     0.33100
H583        H  0.55301440  0.56757526  0.20631547     0.32100
H584        H  0.51717128  0.72204816  0.31456503     0.36100
H585        H  0.54599841  0.72975999  0.26597633     0.28800
H586        H  0.50803152  0.52369486  0.33602512     0.33100
H587        H  0.55018211  0.53605438  0.25488262     0.35900
H588        H  0.44485160  0.65178305  0.27182780     0.28500
H589        H  0.57032974  0.73113921  0.28915907     0.41400
H590        H  0.58572828  0.66365538  0.38501261     0.31400
H591        H  0.53281349  0.67457205  0.38824168     0.39100
H592        H  0.58641846  0.56982610  0.20118318     0.30900
H593        H  0.63131330  0.58401108  0.33454782     0.31000
H594        H  0.53335286  0.52376349  0.31332093     0.31200
Zr595      Zr  0.66618426  0.26770646  0.56651399     2.17500
O596        O  0.71832955  0.26108689  0.56247587    -0.51100
O597        O  0.65967168  0.23847839  0.60998513    -0.74300
O598        O  0.69126468  0.29523663  0.60307595    -0.81100
O599        O  0.65844894  0.21691152  0.50303735    -0.82800
O600        O  0.66635214  0.33590806  0.61456590    -0.78500
O601        O  0.68517368  0.22419761  0.54353733    -0.90100
O602        O  0.61151586  0.23658650  0.61918667    -0.76100
O603        O  0.62661704  0.28474276  0.59462149    -0.85600
O604        O  0.62533462  0.24061941  0.55134848    -0.85200
O605        O  0.66276992  0.31855547  0.55626184    -0.72000
O606        O  0.66130506  0.27803628  0.51583483    -0.84100
Zr607      Zr  0.57586415  0.31897794  0.51816761     2.26400
Zr608      Zr  0.62234759  0.33526134  0.58452244     2.06300
Zr609      Zr  0.61935746  0.25174058  0.50126021     2.10000
Zr610      Zr  0.58580508  0.25795102  0.57886145     1.78800
O611        O  0.63885875  0.24404899  0.45293277    -0.92900
O612        O  0.55801139  0.27232057  0.62128332    -0.40800
O613        O  0.57884212  0.26828897  0.52852348    -0.77400
O614        O  0.58056946  0.30833596  0.56898693    -0.96100
O615        O  0.61673493  0.34563899  0.53416025    -0.89400
O616        O  0.61560291  0.30204740  0.49024578    -0.92200
C617        C  0.63792729  0.23155061  0.62588587     1.01500
C618        C  0.67918287  0.21021646  0.52026173     1.14500
C619        C  0.68836725  0.31894609  0.61712037     1.05200
O620        O  0.60821275  0.33582397  0.63528849    -0.94400
O621        O  0.57920967  0.36662300  0.58614748    -0.90100
O622        O  0.55289549  0.35645796  0.54591215    -0.83300
C623        C  0.55705669  0.37024963  0.56955294     1.11900
O624        O  0.70835033  0.32461799  0.49885745    -0.96300
Zr625      Zr  0.65631985  0.32871530  0.50613210     1.88900
O626        O  0.58354339  0.36302387  0.49006830    -0.73000
O627        O  0.64025291  0.38470858  0.58363660    -0.52300
O628        O  0.68162046  0.37211524  0.52190976    -0.96900
O629        O  0.66850179  0.32283815  0.45509808    -0.54200
O630        O  0.63172294  0.36828222  0.48223960    -0.73500
C631        C  0.60547961  0.37688592  0.48003567     0.98800
O632        O  0.52315362  0.31551815  0.51611146    -0.62300
O633        O  0.59544196  0.20489574  0.50234863    -0.57100
O634        O  0.55624741  0.29926089  0.47324665    -0.93800
O635        O  0.57978801  0.25659585  0.46712397    -0.92200
O636        O  0.57546792  0.20690753  0.57120093    -0.92600
O637        O  0.53461545  0.24607280  0.57640587    -0.91400
C638        C  0.56046765  0.27523226  0.45990321     1.17700
H639        H  0.62818184  0.22017967  0.55448766     0.33600
H640        H  0.56351865  0.31436524  0.57941149     0.44500
H641        H  0.61250964  0.30519421  0.46981945     0.38000
H642        H  0.68030448  0.32842007  0.56168819     0.34500
H643        H  0.55487823  0.25418348  0.63221332     0.26300
H644        H  0.63987531  0.39091227  0.60412956     0.32200
H645        H  0.66635978  0.38694842  0.52419029     0.38100
H646        H  0.57459243  0.19852095  0.59088670     0.32600
H647        H  0.57536081  0.20919467  0.50839839     0.31400
H648        H  0.63272849  0.22424437  0.44766566     0.33100
H649        H  0.65155439  0.33005388  0.44420955     0.32100
H650        H  0.52604956  0.26173133  0.56459810     0.36100
H651        H  0.51904746  0.29477057  0.51287658     0.28800
H652        H  0.72432363  0.25200794  0.58091149     0.33100
H653        H  0.71374918  0.34114274  0.48635909     0.35900
H654        H  0.59379357  0.19914694  0.48178824     0.28500
H655        H  0.51624283  0.31886611  0.53611273     0.41400
H656        H  0.58688531  0.33747412  0.63515199     0.31400
H657        H  0.57182991  0.28340532  0.63325875     0.39100
H658        H  0.66836917  0.30168715  0.45191210     0.30900
H659        H  0.66106116  0.38291947  0.57894174     0.31000
H660        H  0.72677818  0.28073601  0.56283365     0.31200
Zr661      Zr  0.67902844  0.01495950  0.91154890     2.17500
O662        O  0.68240429  0.00337427  0.96291797    -0.51100
O663        O  0.63486980  0.98796893  0.90309841    -0.74300
O664        O  0.64393690  0.04195125  0.93924210    -0.81100
O665        O  0.74017611  0.96234496  0.89925718    -0.82800
O666        O  0.63344064  0.08454204  0.91710450    -0.78500
O667        O  0.70058021  0.96946744  0.92735720    -0.90100
O668        O  0.62648392  0.98585371  0.85473083    -0.76100
O669        O  0.65103896  0.03589974  0.87373458    -0.85600
O670        O  0.69275060  0.99037365  0.86855228    -0.85200
O671        O  0.69108788  0.06552171  0.91197054    -0.72000
O672        O  0.72989000  0.02376167  0.90707237    -0.84100
Zr673      Zr  0.72896515  0.07070784  0.82499560     2.26400
Zr674      Zr  0.66333152  0.08612023  0.87300575     2.06300
Zr675      Zr  0.74318060  0.99992746  0.86315272     2.10000
Zr676      Zr  0.66553540  0.01167073  0.83076495     1.78800
O677        O  0.79118732  0.99068115  0.88257226    -0.92900
O678        O  0.62161381  0.02855550  0.80710383    -0.40800
O679        O  0.71633123  0.02038180  0.82416593    -0.77400
O680        O  0.67781859  0.06176057  0.82938519    -0.96100
O681        O  0.71396914  0.09509485  0.86781945    -0.89400
O682        O  0.75622181  0.04986379  0.86317499    -0.92200
C683        C  0.61958327  0.98068414  0.88111996     1.01500
C684        C  0.72305949  0.95492920  0.91978335     1.14500
C685        C  0.63075425  0.06631521  0.93806058     1.05200
O686        O  0.61317065  0.09131898  0.85801979    -0.94400
O687        O  0.66219271  0.11936552  0.83153345    -0.90100
O688        O  0.70409464  0.11280870  0.80639276    -0.83300
C689        C  0.67975493  0.12541559  0.81070078     1.11900
O690        O  0.75264783  0.06490222  0.95657009    -0.96300
Zr691      Zr  0.74149688  0.07434102  0.90583648     1.88900
O692        O  0.76171984  0.11068436  0.83480292    -0.73000
O693        O  0.66615359  0.13486265  0.89260727    -0.52300
O694        O  0.72713713  0.11313230  0.93853335    -0.96900
O695        O  0.79308920  0.06749440  0.91441676    -0.54200
O696        O  0.76265639  0.11701790  0.88351023    -0.73500
C697        C  0.76871023  0.12498466  0.85757541     0.98800
O698        O  0.72980950  0.07177346  0.77216423    -0.62300
O699        O  0.74149253  0.95472908  0.83619216    -0.57100
O700        O  0.77252098  0.04935903  0.80366881    -0.93800
O701        O  0.77749716  0.00475235  0.82388954    -0.92200
O702        O  0.67253686  0.96244653  0.81351846    -0.92600
O703        O  0.66505169  0.01043660  0.77811237    -0.91400
C704        C  0.78498586  0.02460076  0.80603625     1.17700
H705        H  0.68883782  0.96991768  0.86984267     0.33600
H706        H  0.66780021  0.06945291  0.81278209     0.44500
H707        H  0.77669063  0.05232935  0.85998546     0.38000
H708        H  0.68606317  0.07425478  0.93025659     0.34500
H709        H  0.60952218  0.01106943  0.80474329     0.26300
H710        H  0.64634121  0.14266945  0.89046995     0.32200
H711        H  0.72237524  0.12957717  0.92569982     0.38100
H712        H  0.65276632  0.95503393  0.81009233     0.32600
H713        H  0.74053583  0.96053858  0.81559517     0.31400
H714        H  0.79637504  0.97122518  0.87532077     0.33100
H715        H  0.80298990  0.07665260  0.89778605     0.32100
H716        H  0.67945488  0.02511862  0.77222667     0.36100
H717        H  0.73126562  0.05125666  0.76625528     0.28800
H718        H  0.66279076  0.99700433  0.96865197     0.33100
H719        H  0.76650532  0.08010435  0.96245565     0.35900
H720        H  0.76099223  0.94622208  0.83850822     0.28500
H721        H  0.71006701  0.07739300  0.76612931     0.41400
H722        H  0.60342520  0.07370659  0.86527492     0.31400
H723        H  0.61151266  0.04007264  0.82205350     0.39100
H724        H  0.79636495  0.04651059  0.91181769     0.30900
H725        H  0.66858799  0.13213939  0.91370700     0.31000
H726        H  0.68525337  0.02213103  0.97281173     0.31200
Zr727      Zr  0.91509974  0.68076675  0.01833767     2.17500
O728        O  0.96619567  0.68218107  0.00533355    -0.51100
O729        O  0.90839681  0.63377021  0.99526110    -0.74300
O730        O  0.94429673  0.65021409  0.04878659    -0.81100
O731        O  0.90196970  0.73793217  0.96053468    -0.82800
O732        O  0.92056646  0.64027016  0.09071386    -0.78500
O733        O  0.93216311  0.70104822  0.97250826    -0.90100
O734        O  0.86033863  0.62445892  0.99204963    -0.76100
O735        O  0.87772383  0.65328907  0.04068067    -0.85600
O736        O  0.87240722  0.69106843  0.99179774    -0.85200
O737        O  0.91387571  0.69685956  0.06798915    -0.72000
O738        O  0.90869751  0.73212408  0.02286096    -0.84100
Zr739      Zr  0.82609139  0.73197316  0.06902157     2.26400
Zr740      Zr  0.87555825  0.66916357  0.08996971     2.06300
Zr741      Zr  0.86481761  0.74180741  0.99729924     2.10000
Zr742      Zr  0.83495485  0.66461558  0.01457247     1.78800
O743        O  0.88064620  0.78973130  0.98249717    -0.92900
O744        O  0.81243451  0.62106078  0.03370822    -0.40800
O745        O  0.82667635  0.71549778  0.01974331    -0.77400
O746        O  0.83203087  0.68038743  0.06376315    -0.96100
O747        O  0.86893443  0.72021512  0.09485601    -0.89400
O748        O  0.86336575  0.75900235  0.04614808    -0.92200
C749        C  0.88694741  0.61761591  0.98820508     1.01500
C750        C  0.92406469  0.72179195  0.95582399     1.14500
C751        C  0.94251266  0.63794263  0.07356509     1.05200
O752        O  0.86110936  0.61937088  0.09877654    -0.94400
O753        O  0.83368875  0.66993248  0.12333382    -0.90100
O754        O  0.80551302  0.70825377  0.11080919    -0.83300
C755        C  0.81120155  0.68621413  0.12662065     1.11900
O756        O  0.95645604  0.75758566  0.06025029    -0.96300
Zr757      Zr  0.90607066  0.74768616  0.07236330     1.88900
O758        O  0.83530757  0.76530361  0.10894771    -0.73000
O759        O  0.89573939  0.67454486  0.13829948    -0.52300
O760        O  0.93904162  0.73993274  0.11273355    -0.96900
O761        O  0.91039914  0.79975485  0.06441935    -0.54200
O762        O  0.88372941  0.76983226  0.11421103    -0.73500
C763        C  0.85772906  0.77427923  0.12269095     0.98800
O764        O  0.77348517  0.73560689  0.06997813    -0.62300
O765        O  0.83846380  0.73371157  0.95245961    -0.57100
O766        O  0.80271589  0.77217243  0.04372920    -0.93800
O767        O  0.82288991  0.77309825  0.99879954    -0.92200
O768        O  0.81927743  0.66806509  0.96436126    -0.92600
O769        O  0.78242430  0.66476659  0.01152362    -0.91400
C770        C  0.80433141  0.78164707  0.01759472     1.17700
H771        H  0.87440672  0.68561172  0.97172635     0.33600
H772        H  0.81567683  0.67029812  0.07186192     0.44500
H773        H  0.85911687  0.77940836  0.04670249     0.38000
H774        H  0.93202838  0.69329278  0.07758594     0.34500
H775        H  0.80595885  0.61024076  0.01641017     0.26300
H776        H  0.89678822  0.65460236  0.14600030     0.32200
H777        H  0.94099938  0.75909604  0.12205665     0.38100
H778        H  0.82346973  0.64889883  0.95582792     0.32600
H779        H  0.81833223  0.72973286  0.95855443     0.31400
H780        H  0.89763862  0.79374034  0.99485535     0.33100
H781        H  0.92341726  0.80657294  0.07996363     0.32100
H782        H  0.77628952  0.68096828  0.02410901     0.36100
H783        H  0.76636422  0.71547980  0.07134580     0.28800
H784        H  0.97204174  0.66183967  0.00212383     0.33100
H785        H  0.96240609  0.77427281  0.07223485     0.35900
H786        H  0.83757059  0.75293340  0.94309949     0.28500
H787        H  0.76863582  0.74450795  0.08885732     0.41400
H788        H  0.86684935  0.60882500  0.08104373     0.31400
H789        H  0.82867084  0.60948592  0.04146445     0.39100
H790        H  0.89144576  0.80815906  0.06972119     0.30900
H791        H  0.91613262  0.68016840  0.13508170     0.31000
H792        H  0.97648252  0.68826833  0.02308665     0.31200
C793        C  0.75866228  0.88382750  0.93995262    -0.28000
C794        C  0.74482102  0.87685805  0.96602481     0.05600
C795        C  0.72317395  0.89534562  0.97667672     0.25200
C796        C  0.71584184  0.92055972  0.96148442    -0.12500
C797        C  0.73003151  0.92775005  0.93547383    -0.26400
C798        C  0.75136037  0.90872991  0.92471464     0.36100
C799        C  0.75426290  0.85068217  0.98192622     0.05600
F800        F  0.70889278  0.88882655  0.00148501    -0.20200
H801        H  0.69924250  0.93456691  0.97024352     0.15500
F802        F  0.76526064  0.91391287  0.89934603    -0.23900
H803        H  0.77557884  0.87001527  0.93145713     0.17300
C804        C  0.75693583  0.82423775  0.96722258     0.25300
C805        C  0.77183547  0.80129120  0.97986823    -0.12400
C806        C  0.78382177  0.80398059  0.00762487    -0.26500
C807        C  0.77895382  0.82948407  0.02343974     0.36200
C808        C  0.76441572  0.85277421  0.01052123    -0.28100
F809        F  0.74625460  0.82106594  0.94005249    -0.20200
H810        H  0.77500826  0.78166182  0.96748281     0.15500
F811        F  0.79027067  0.83277463  0.05030820    -0.23900
H812        H  0.76266625  0.87299670  0.02218402     0.17300
C813        C  0.62969795  0.20867714  0.70438300    -0.28000
C814        C  0.65437826  0.19158522  0.70856122     0.05600
C815        C  0.67352306  0.18738443  0.68517064     0.25200
C816        C  0.66820738  0.20050751  0.65839748    -0.12500
C817        C  0.64347087  0.21758386  0.65422214    -0.26400
C818        C  0.62425289  0.22160702  0.67760041     0.36100
C819        C  0.65969700  0.17782924  0.73713793     0.05600
F820        F  0.69694242  0.16991932  0.68790613    -0.20200
H821        H  0.68321799  0.19690967  0.64075715     0.15500
F822        F  0.60059932  0.23876871  0.67492010    -0.23900
H823        H  0.61476179  0.21234733  0.72207161     0.17300
C824        C  0.68684429  0.17990783  0.75059971     0.25300
C825        C  0.69258291  0.16429547  0.77582894    -0.12400
C826        C  0.67122968  0.14682810  0.78853805    -0.26500
C827        C  0.64337654  0.14647760  0.77635924     0.36200
C828        C  0.63775138  0.16181307  0.75081492    -0.28100
F829        F  0.70797133  0.19672845  0.73913638    -0.20200
H830        H  0.71412742  0.16506291  0.78495954     0.15500
F831        F  0.62230504  0.12951526  0.78772673    -0.23900
H832        H  0.61659132  0.16008307  0.74096737     0.17300
C833        C  0.60846360  0.50782226  0.41814648    -0.28000
C834        C  0.58628538  0.48824032  0.42538442     0.05600
C835        C  0.55776025  0.49501486  0.41729899     0.25200
C836        C  0.55180597  0.52009586  0.40176286    -0.12500
C837        C  0.57402836  0.53897613  0.39314821    -0.26400
C838        C  0.60250169  0.53289023  0.40204353     0.36100
C839        C  0.59262519  0.46040113  0.44042305     0.05600
F840        F  0.53562062  0.47661128  0.42291865    -0.20200
H841        H  0.52961518  0.52409932  0.39546409     0.15500
F842        F  0.62473578  0.55029095  0.39411251    -0.23900
H843        H  0.63053815  0.50352502  0.42458999     0.17300
C844        C  0.61583099  0.44256797  0.43185815     0.25300
C845        C  0.61971698  0.41535716  0.44458445    -0.12400
C846        C  0.60056294  0.40525660  0.46594736    -0.26500
C847        C  0.57802822  0.42345221  0.47515139     0.36200
C848        C  0.57428936  0.45068817  0.46267471    -0.28100
F849        F  0.63431660  0.45094810  0.41064861    -0.20200
H850        H  0.63757553  0.40198442  0.43744268     0.15500
F851        F  0.56024876  0.41545209  0.49703823    -0.23900
H852        H  0.55697478  0.46432033  0.47059337     0.17300
C853        C  0.69257157  0.63616433  0.18355667    -0.28000
C854        C  0.71079059  0.65733841  0.19562110     0.05600
C855        C  0.70082836  0.67288191  0.21989491     0.25200
C856        C  0.67293881  0.66828378  0.23076833    -0.12500
C857        C  0.65468130  0.64735142  0.21851115    -0.26400
C858        C  0.66506437  0.63078414  0.19518453     0.36100
C859        C  0.73910130  0.66440059  0.18163443     0.05600
F860        F  0.71827566  0.69206781  0.23358287    -0.20200
H861        H  0.66585680  0.68060979  0.24940701     0.15500
F862        F  0.64841314  0.60986396  0.18317120    -0.23900
H863        H  0.69940935  0.62405364  0.16471209     0.17300
C864        C  0.75798547  0.64263894  0.17158303     0.25300
C865        C  0.78259585  0.64979659  0.15522238    -0.12400
C866        C  0.78895871  0.67875935  0.14869942    -0.26500
C867        C  0.77111980  0.70052976  0.16045657     0.36200
C868        C  0.74649898  0.69338308  0.17648518    -0.28100
F869        F  0.75246939  0.61441433  0.17725828    -0.20200
H870        H  0.79593931  0.63260309  0.14657707     0.15500
F871        F  0.77696161  0.72886738  0.15572349    -0.23900
H872        H  0.73248070  0.71066036  0.18378002     0.17300
C873        C  0.49003204  0.41689897  0.56491153    -0.28000
C874        C  0.48491287  0.42397463  0.59389281     0.05600
C875        C  0.50465386  0.41459249  0.61510470     0.25200
C876        C  0.52894261  0.39811949  0.60715444    -0.12500
C877        C  0.53366737  0.39057758  0.57802952    -0.26400
C878        C  0.51390508  0.40049741  0.55698255     0.36100
C879        C  0.45803049  0.43989294  0.60112861     0.05600
F880        F  0.50050113  0.42136951  0.64337107    -0.20200
H881        H  0.54354725  0.39059149  0.62383181     0.15500
F882        F  0.51702437  0.39380799  0.52857287    -0.23900
H883        H  0.47488700  0.42337868  0.54825967     0.17300
C884        C  0.45020589  0.46458157  0.58516465     0.25300
C885        C  0.42284446  0.47684109  0.58845616    -0.12400
C886        C  0.40292777  0.46519835  0.60815289    -0.26500
C887        C  0.41109421  0.44123559  0.62505298     0.36200
C888        C  0.43838204  0.42858199  0.62136310    -0.28100
F889        F  0.46905137  0.47677585  0.56622899    -0.20200
H890        H  0.41736567  0.49582599  0.57590002     0.15500
F891        F  0.39234379  0.42941914  0.64430555    -0.23900
H892        H  0.44376539  0.40932924  0.63354926     0.17300
C893        C  0.42928808  0.61840238  0.44320267    -0.28000
C894        C  0.44009453  0.59641859  0.46126480     0.05600
C895        C  0.46358255  0.57968020  0.45137240     0.25200
C896        C  0.47533002  0.58437040  0.42391701    -0.12500
C897        C  0.46476890  0.60651112  0.40610255    -0.26400
C898        C  0.44183082  0.62381090  0.41611886     0.36100
C899        C  0.42591809  0.58987643  0.48951053     0.05600
F900        F  0.47581874  0.55928529  0.46856101    -0.20200
H901        H  0.49349735  0.57130246  0.41696001     0.15500
F902        F  0.43120238  0.64557070  0.39954589    -0.23900
H903        H  0.41089107  0.63124730  0.44988599     0.17300
C904        C  0.41675145  0.61187185  0.50860478     0.25300
C905        C  0.40115994  0.60497389  0.53376229    -0.12400
C906        C  0.39444450  0.57610333  0.54024298    -0.26500
C907        C  0.40535876  0.55412388  0.52212510     0.36200
C908        C  0.42043357  0.56101595  0.49698393    -0.28100
F909        F  0.42232595  0.64004050  0.50271295    -0.20200
H910        H  0.39303043  0.62228536  0.54728245     0.15500
F911        F  0.40043616  0.52579482  0.52800241    -0.23900
H912        H  0.42681974  0.54358389  0.48272217     0.17300
C913        C  0.47785820  0.72376199  0.15464425    -0.28000
C914        C  0.49914770  0.73210688  0.13478991     0.05600
C915        C  0.52842191  0.72929453  0.14232727     0.25200
C916        C  0.53612582  0.71631646  0.16871400    -0.12500
C917        C  0.51467271  0.70614925  0.18779162    -0.26400
C918        C  0.48541542  0.71116179  0.18094815     0.36100
C919        C  0.48992388  0.74103954  0.10553407     0.05600
F920        F  0.54941744  0.73762780  0.12358924    -0.20200
H921        H  0.55877208  0.71292541  0.17354722     0.15500
F922        F  0.46397314  0.70338478  0.19945207    -0.23900
H923        H  0.45518914  0.72627106  0.14932029     0.17300
C924        C  0.47617245  0.72079555  0.08767873     0.25300
C925        C  0.46234980  0.72967087  0.06245802    -0.12400
C926        C  0.46154670  0.75901636  0.05456643    -0.26500
C927        C  0.47701559  0.77912185  0.07150567     0.36200
C928        C  0.49110289  0.77007602  0.09686121    -0.28100
F929        F  0.47484456  0.69253638  0.09545831    -0.20200
H930        H  0.45115661  0.71354734  0.04971372     0.15500
F931        F  0.47694056  0.80766426  0.06476583    -0.23900
H932        H  0.50150928  0.78594650  0.11054927     0.17300
C933        C  0.50462574  0.92029275  0.93553177    -0.28000
C934        C  0.50900981  0.92823886  0.90657228     0.05600
C935        C  0.48809749  0.92038401  0.88585002     0.25200
C936        C  0.46396509  0.90397337  0.89400653    -0.12500
C937        C  0.46036001  0.89504999  0.92285591    -0.26400
C938        C  0.48057840  0.90423669  0.94371356     0.36100
C939        C  0.53631161  0.94312157  0.89847159     0.05600
F940        F  0.49119075  0.92807433  0.85768226    -0.20200
H941        H  0.44882802  0.89716531  0.87750412     0.15500
F942        F  0.47781208  0.89688242  0.97202410    -0.23900
H943        H  0.52051477  0.92551531  0.95189374     0.17300
C944        C  0.54745047  0.96543360  0.91591829     0.25300
C945        C  0.57472220  0.97696867  0.91029927    -0.12400
C946        C  0.59131826  0.96702132  0.88690406    -0.26500
C947        C  0.58002812  0.94525643  0.86895054     0.36200
C948        C  0.55283824  0.93331037  0.87485468    -0.28100
F949        F  0.53195222  0.97621723  0.93842933    -0.20200
H950        H  0.58272215  0.99414430  0.92405614     0.15500
F951        F  0.59572839  0.93469665  0.84649306    -0.23900
H952        H  0.54517143  0.91567214  0.86153484     0.17300
C953        C  0.36506828  0.68528993  0.80127281    -0.28000
C954        C  0.34004556  0.69342399  0.78604166     0.05600
C955        C  0.32163762  0.71437436  0.79836842     0.25200
C956        C  0.32788614  0.72624591  0.82547109    -0.12500
C957        C  0.35284122  0.71802337  0.84068209    -0.26400
C958        C  0.37164718  0.69765602  0.82809558     0.36100
C959        C  0.33231697  0.67844034  0.75856021     0.05600
F960        F  0.29777614  0.72374539  0.78409877    -0.20200
H961        H  0.31341488  0.74239275  0.83433994     0.15500
F962        F  0.39597492  0.68902436  0.84203346    -0.23900
H963        H  0.37928196  0.66875140  0.79275432     0.17300
C964        C  0.35324648  0.67208532  0.73727906     0.25300
C965        C  0.34616651  0.65485457  0.71335886    -0.12400
C966        C  0.31805181  0.64384391  0.70999026    -0.26500
C967        C  0.29675224  0.65179602  0.73041086     0.36200
C968        C  0.30396345  0.66854536  0.75442397    -0.28100
F969        F  0.38063413  0.68226969  0.73970949    -0.20200
H970        H  0.36296379  0.64943453  0.69794788     0.15500
F971        F  0.26896276  0.64276107  0.72780636    -0.23900
H972        H  0.28742858  0.67272169  0.77048206     0.17300
C973        C  0.00703293  0.75261684  0.83908925    -0.28000
C974        C  0.99056742  0.76649664  0.86057677     0.05600
C975        C  0.98851463  0.79672846  0.86028187     0.25200
C976        C  0.00121516  0.81266746  0.83803248    -0.12500
C977        C  0.01631297  0.79894701  0.81542713    -0.26400
C978        C  0.01988914  0.76869646  0.81660302     0.36100
C979        C  0.97387354  0.74997815  0.88244926     0.05600
F980        F  0.97343238  0.81081924  0.88119028    -0.20200
H981        H  0.99840895  0.83591193  0.83799772     0.15500
F982        F  0.03413436  0.75452464  0.79520895    -0.23900
H983        H  0.00892090  0.72929217  0.83908668     0.17300
C984        C  0.94351734  0.75065657  0.88181104     0.25300
C985        C  0.92748298  0.74007574  0.90515243    -0.12400
C986        C  0.94133018  0.72833274  0.92952754    -0.26500
C987        C  0.97168618  0.72573535  0.92925568     0.36200
C988        C  0.98780123  0.73666121  0.90590271    -0.28100
F989        F  0.92940734  0.76269489  0.85906076    -0.20200
H990        H  0.90414740  0.74195002  0.90457599     0.15500
F991        F  0.98588863  0.71458992  0.95237777    -0.23900
H992        H  0.01118177  0.73603880  0.90677743     0.17300
C993        C  0.90768183  0.97467854  0.77193260    -0.28000
C994        C  0.88800195  0.98394277  0.75084539     0.05600
C995        C  0.89380951  0.97814636  0.72154473     0.25200
C996        C  0.91874956  0.96280319  0.71363811    -0.12500
C997        C  0.93786362  0.95248900  0.73489041    -0.26400
C998        C  0.93225460  0.95895519  0.76417087     0.36100
C999        C  0.86061558  0.99761636  0.76023737     0.05600
F1000       F  0.87522588  0.98704555  0.70067479    -0.20200
H1001       H  0.92257687  0.95809864  0.69099960     0.15500
F1002       F  0.95047139  0.95000654  0.78538574    -0.23900
H1003       H  0.90349121  0.97886690  0.79461926     0.17300
C1004       C  0.83423987  0.98314373  0.75623678     0.25300
C1005       C  0.80923908  0.99303855  0.77008037    -0.12400
C1006       C  0.80995095  0.01792236  0.78740946    -0.26500
C1007       C  0.83587740  0.03347726  0.78994684     0.36200
C1008       C  0.86111759  0.02314324  0.77670435    -0.28100
F1009       F  0.83309305  0.95829388  0.74068657    -0.20200
H1010       H  0.78946566  0.98066388  0.76815069     0.15500
F1011       F  0.83728736  0.05730394  0.80700418    -0.23900
H1012       H  0.88132467  0.03440872  0.78020790     0.17300
C1013       C  0.17194751  0.74543530  0.68599225    -0.28000
C1014       C  0.17271618  0.73579653  0.65719540     0.05600
C1015       C  0.15925953  0.75268552  0.63570579     0.25200
C1016       C  0.14448392  0.77810682  0.64322222    -0.12500
C1017       C  0.14270350  0.78696664  0.67226072    -0.26400
C1018       C  0.15725624  0.77070250  0.69348376     0.36100
C1019       C  0.18678987  0.70769732  0.65029223     0.05600
F1020       F  0.16021646  0.74452518  0.60751601    -0.20200
H1021       H  0.13335851  0.79016289  0.62650881     0.15500
F1022       F  0.15677131  0.77887660  0.72168251    -0.23900
H1023       H  0.18194384  0.73281735  0.70300027     0.17300
C1024       C  0.21417430  0.70094422  0.66170512     0.25300
C1025       C  0.22628277  0.67366488  0.65726313    -0.12400
C1026       C  0.21178009  0.65285092  0.64072993    -0.26500
C1027       C  0.18480268  0.65959816  0.62863407     0.36200
C1028       C  0.17226952  0.68674374  0.63366902    -0.28100
F1029       F  0.22951027  0.72092811  0.67671041    -0.20200
H1030       H  0.24740782  0.66896269  0.66622944     0.15500
F1031       F  0.17028766  0.63966686  0.61275770    -0.23900
H1032       H  0.15098591  0.69121232  0.62503048     0.17300
C1033       C  0.24153686  0.81419848  0.83492251    -0.28000
C1034       C  0.23747901  0.84288463  0.82614984     0.05600
C1035       C  0.25847265  0.86362685  0.83345932     0.25200
C1036       C  0.28280109  0.85566054  0.84974470    -0.12500
C1037       C  0.28644684  0.82696080  0.85915816    -0.26400
C1038       C  0.26564907  0.80618606  0.85098702     0.36100
C1039       C  0.21079027  0.85051487  0.81010029     0.05600
F1040       F  0.25548313  0.89150690  0.82486552    -0.20200
H1041       H  0.29832762  0.87212011  0.85566225     0.15500
F1042       F  0.26812947  0.77802470  0.85886208    -0.23900
H1043       H  0.22553292  0.79789276  0.82987155     0.17300
C1044       C  0.20165117  0.83336414  0.78671404     0.25300
C1045       C  0.17478862  0.83809287  0.77394297    -0.12400
C1046       C  0.15669259  0.86035229  0.78373413    -0.26500
C1047       C  0.16628318  0.87846412  0.80622667     0.36200
C1048       C  0.19302455  0.87332774  0.81949269    -0.28100
F1049       F  0.21876145  0.81197537  0.77616331    -0.20200
H1050       H  0.16823014  0.82448395  0.75606755     0.15500
F1051       F  0.14942698  0.90040796  0.81603637    -0.23900
H1052       H  0.19947732  0.88663818  0.83763678     0.17300
C1053       C  0.71749603  0.79692536  0.32944542    -0.28000
C1054       C  0.69437349  0.78746986  0.34681023     0.05600
C1055       C  0.68522459  0.80501041  0.36999312     0.25200
C1056       C  0.69859943  0.83157607  0.37515979    -0.12500
C1057       C  0.72090138  0.84141706  0.35706937    -0.26400
C1058       C  0.73048830  0.82372222  0.33429679     0.36100
C1059       C  0.67892048  0.76026072  0.33955313     0.05600
F1060       F  0.66265343  0.79708964  0.38700547    -0.20200
H1061       H  0.69105931  0.84481964  0.39296606     0.15500
F1062       F  0.75296771  0.83192577  0.31727032    -0.23900
H1063       H  0.72550805  0.78352845  0.31197878     0.17300
C1064       C  0.67080579  0.75456102  0.31081432     0.25300
C1065       C  0.65446491  0.73019269  0.30418635    -0.12400
C1066       C  0.64502039  0.71120069  0.32600784    -0.26500
C1067       C  0.65395937  0.71626868  0.35469607     0.36200
C1068       C  0.67095273  0.74047137  0.36127035    -0.28100
F1069       F  0.67698005  0.77352111  0.28926039    -0.20200
H1070       H  0.64802703  0.72697986  0.28189123     0.15500
F1071       F  0.64502941  0.69892361  0.37662438    -0.23900
H1072       H  0.67732480  0.74410526  0.38350988     0.17300
C1073       C  0.85471488  0.82746869  0.25752465    -0.28000
C1074       C  0.84233564  0.83558119  0.23093472     0.05600
C1075       C  0.82450906  0.86002827  0.22978394     0.25200
C1076       C  0.81889734  0.87587919  0.25470535    -0.12500
C1077       C  0.83056827  0.86767167  0.28160879    -0.26400
C1078       C  0.84870997  0.84326148  0.28283273     0.36100
C1079       C  0.84683303  0.81832045  0.20436614     0.05600
F1080       F  0.81250592  0.86866436  0.20440584    -0.20200
H1081       H  0.80515592  0.89473474  0.25284285     0.15500
F1082       F  0.85946834  0.83391721  0.30847937    -0.23900
H1083       H  0.86826753  0.80842300  0.25880394     0.17300
C1084       C  0.87449987  0.81442688  0.19255856     0.25300
C1085       C  0.87783667  0.80038933  0.16592210    -0.12400
C1086       C  0.85365399  0.78988833  0.15058600    -0.26500
C1087       C  0.82599947  0.79348155  0.16291060     0.36200
C1088       C  0.82276465  0.80752033  0.18945320    -0.28100
F1089       F  0.89815247  0.82503065  0.20627866    -0.20200
H1090       H  0.89945352  0.79788887  0.15726962     0.15500
F1091       F  0.80193770  0.78360709  0.14942662    -0.23900
H1092       H  0.80125190  0.81030947  0.19831117     0.17300
C1093       C  0.91962328  0.93431733  0.50673050    -0.28000
C1094       C  0.92583664  0.90528537  0.51265302     0.05600
C1095       C  0.91738766  0.88405766  0.49249009     0.25200
C1096       C  0.90202852  0.89195050  0.46743457    -0.12500
C1097       C  0.89482466  0.92104631  0.46228850    -0.26400
C1098       C  0.90462844  0.94219222  0.48190284     0.36100
C1099       C  0.94036418  0.89806862  0.54041546     0.05600
F1100       F  0.92374524  0.85580191  0.49710887    -0.20200
H1101       H  0.89469568  0.87523752  0.45278673     0.15500
F1102       F  0.89901669  0.97065909  0.47760648    -0.23900
H1103       H  0.92566560  0.95107920  0.52191493     0.17300
C1104       C  0.96469417  0.91394478  0.54931851     0.25300
C1105       C  0.97626858  0.91002485  0.57686103    -0.12400
C1106       C  0.96427579  0.88993811  0.59612402    -0.26500
C1107       C  0.94027784  0.87350257  0.58721322     0.36200
C1108       C  0.92838278  0.87765950  0.55955608    -0.28100
F1109       F  0.97742634  0.93327465  0.53127176    -0.20200
H1110       H  0.99519403  0.92231790  0.58294577     0.15500
F1111       F  0.92772000  0.85431669  0.60553884    -0.23900
H1112       H  0.90926504  0.86564156  0.55344763     0.17300
C1113       C  0.73401547  0.14830070  0.52297655    -0.28000
C1114       C  0.72655398  0.13291958  0.49791763     0.05600
C1115       C  0.70486269  0.14385523  0.47976301     0.25200
C1116       C  0.69014259  0.16908402  0.48703572    -0.12500
C1117       C  0.69668623  0.18427201  0.51258165    -0.26400
C1118       C  0.71924858  0.17381034  0.53034522     0.36100
C1119       C  0.74035160  0.10500062  0.49056089     0.05600
F1120       F  0.69794707  0.13007581  0.45477655    -0.20200
H1121       H  0.67331577  0.17652586  0.47256629     0.15500
F1122       F  0.72684823  0.18786525  0.55495253    -0.23900
H1123       H  0.75084443  0.14022524  0.53710480     0.17300
C1124       C  0.76978257  0.10325570  0.48309571     0.25300
C1125       C  0.78071163  0.07812200  0.46999573    -0.12400
C1126       C  0.76230593  0.05467804  0.46420210    -0.26500
C1127       C  0.73359609  0.05563462  0.47415789     0.36200
C1128       C  0.72279140  0.08056843  0.48716841    -0.28100
F1129       F  0.78725423  0.12657660  0.48624644    -0.20200
H1130       H  0.80289754  0.07779853  0.46250049     0.15500
F1131       F  0.71556943  0.03287321  0.47000468    -0.23900
H1132       H  0.70017195  0.08139879  0.49321080     0.17300
C1133       C  0.07695748  0.48221070  0.72071516    -0.28000
C1134       C  0.10155700  0.48688677  0.73779960     0.05600
C1135       C  0.10051917  0.47967245  0.76739130     0.25200
C1136       C  0.07601377  0.46587334  0.77892979    -0.12500
C1137       C  0.05249578  0.45885561  0.76101379    -0.26400
C1138       C  0.05276899  0.46824261  0.73205124     0.36100
C1139       C  0.12883789  0.49609361  0.72351567     0.05600
F1140       F  0.12393672  0.48386337  0.78453305    -0.20200
H1141       H  0.07627527  0.45886799  0.80128933     0.15500
F1142       F  0.03002162  0.46289420  0.71431305    -0.23900
H1143       H  0.07703617  0.48817533  0.69804413     0.17300
C1144       C  0.13922606  0.48039109  0.69966259     0.25300
C1145       C  0.16422049  0.48905278  0.68528931    -0.12400
C1146       C  0.17967887  0.51374298  0.69405130    -0.26500
C1147       C  0.16939981  0.52946024  0.71815801     0.36200
C1148       C  0.14428842  0.52051280  0.73283333    -0.28100
F1149       F  0.12528469  0.45633533  0.69030729    -0.20200
H1150       H  0.17129776  0.47626783  0.66697805     0.15500
F1151       F  0.18340761  0.55343020  0.72754351    -0.23900
H1152       H  0.13658207  0.53296237  0.75112114     0.17300
C1153       C  0.82143960  0.24932789  0.81271944    -0.28000
C1154       C  0.82265459  0.23690136  0.84041034     0.05600
C1155       C  0.83788989  0.25150524  0.86239253     0.25200
C1156       C  0.85237729  0.27740089  0.85634859    -0.12500
C1157       C  0.85257453  0.28878296  0.82820406    -0.26400
C1158       C  0.83629178  0.27487413  0.80658429     0.36100
C1159       C  0.80932931  0.20805700  0.84546732     0.05600
F1160       F  0.84067210  0.23971116  0.88912074    -0.20200
H1161       H  0.86521238  0.28738355  0.87318770     0.15500
F1162       F  0.83549018  0.28546770  0.77922421    -0.23900
H1163       H  0.80952319  0.23878831  0.79554458     0.17300
C1164       C  0.79118668  0.20292067  0.86935176     0.25300
C1165       C  0.77882446  0.17562610  0.87356138    -0.12400
C1166       C  0.78367476  0.15308364  0.85370804    -0.26500
C1167       C  0.80157335  0.15832005  0.82964040     0.36200
C1168       C  0.81439428  0.18543357  0.82576562    -0.28100
F1169       F  0.78437453  0.22459495  0.88792805    -0.20200
H1170       H  0.76461626  0.17239879  0.89192144     0.15500
F1171       F  0.80695730  0.13718387  0.80999540    -0.23900
H1172       H  0.82837948  0.18877977  0.80725676     0.17300
C1173       C  0.88968351  0.48679493  0.92689591    -0.28000
C1174       C  0.91160723  0.50594560  0.93581718     0.05600
C1175       C  0.94045180  0.49909293  0.92879548     0.25200
C1176       C  0.94680995  0.47499587  0.91169140    -0.12500
C1177       C  0.92474523  0.45701799  0.90105135    -0.26400
C1178       C  0.89606495  0.46267977  0.90959285     0.36100
C1179       C  0.90428135  0.53390987  0.95041288     0.05600
F1180       F  0.96251442  0.51666281  0.93676251    -0.20200
H1181       H  0.96913282  0.47108687  0.90576153     0.15500
F1182       F  0.87396020  0.44611719  0.89976776    -0.23900
H1183       H  0.86736988  0.49097391  0.93260758     0.17300
C1184       C  0.88144019  0.55136524  0.94020164     0.25300
C1185       C  0.87578688  0.57832053  0.95278743    -0.12400
C1186       C  0.89317999  0.58895088  0.97524187    -0.26500
C1187       C  0.91587738  0.57158108  0.98565913     0.36200
C1188       C  0.92105691  0.54424739  0.97362095    -0.28100
F1189       F  0.86525710  0.54301707  0.91721160    -0.20200
H1190       H  0.85819947  0.59130978  0.94440404     0.15500
F1191       F  0.93259472  0.58069056  0.00799075    -0.23900
H1192       H  0.93829917  0.53115493  0.98249905     0.17300
C1193       C  0.76150653  0.31746767  0.65441765    -0.28000
C1194       C  0.76118074  0.34280274  0.67090771     0.05600
C1195       C  0.73658507  0.36076201  0.66971182     0.25200
C1196       C  0.71273596  0.35300603  0.65248763    -0.12500
C1197       C  0.71295300  0.32715932  0.63636052    -0.26400
C1198       C  0.73784188  0.30945104  0.63780412     0.36100
C1199       C  0.78687884  0.34955613  0.68900956     0.05600
F1200       F  0.73532355  0.38537750  0.68561123    -0.20200
H1201       H  0.69412427  0.36718839  0.65184495     0.15500
F1202       F  0.73979056  0.28416180  0.62312718    -0.23900
H1203       H  0.78038392  0.30360253  0.65433159     0.17300
C1204       C  0.79976402  0.32774447  0.70589831     0.25300
C1205       C  0.82606190  0.33259793  0.71979095    -0.12400
C1206       C  0.83992019  0.35949777  0.71792257    -0.26500
C1207       C  0.82643453  0.38181275  0.70203183     0.36200
C1208       C  0.80028965  0.37673076  0.68755419    -0.28100
F1209       F  0.78691788  0.30154980  0.70892611    -0.20200
H1210       H  0.83552792  0.31518745  0.73219584     0.15500
F1211       F  0.83886279  0.40826925  0.69969463    -0.23900
H1212       H  0.79100786  0.39377115  0.67445797     0.17300
C1213       C  0.07846751  0.38770523  0.00808339    -0.28000
C1214       C  0.06849150  0.40986798  0.98975135     0.05600
C1215       C  0.07149161  0.43868927  0.99888183     0.25200
C1216       C  0.08667834  0.44518291  0.02415712    -0.12500
C1217       C  0.09898909  0.42318762  0.04123391    -0.26400
C1218       C  0.09344568  0.39422063  0.03370410     0.36100
C1219       C  0.05595264  0.40299919  0.96083466     0.05600
F1220       F  0.06024616  0.46070779  0.98306014    -0.20200
H1221       H  0.08988007  0.46769113  0.02973578     0.15500
F1222       F  0.10421485  0.37221438  0.04982783    -0.23900
H1223       H  0.07593471  0.36529789  0.00184387     0.17300
C1224       C  0.06532369  0.41767392  0.93576523     0.25300
C1225       C  0.05268277  0.41191444  0.90888649    -0.12400
C1226       C  0.03109860  0.39082378  0.90615907    -0.26500
C1227       C  0.02238387  0.37541692  0.93098261     0.36200
C1228       C  0.03466643  0.38155455  0.95800781    -0.28100
F1229       F  0.08718473  0.43716871  0.93707100    -0.20200
H1230       H  0.05998511  0.42380751  0.89006026     0.15500
F1231       F  0.00106962  0.35534116  0.92940328    -0.23900
H1232       H  0.02708598  0.36994232  0.97689052     0.17300
C1233       C  0.99267923  0.58119078  0.10667962    -0.28000
C1234       C  0.01937445  0.58938462  0.09449946     0.05600
C1235       C  0.02052521  0.61406334  0.07694151     0.25200
C1236       C  0.99553919  0.62981685  0.07115091    -0.12500
C1237       C  0.96857059  0.62139099  0.08249051    -0.26400
C1238       C  0.96736317  0.59701398  0.10065935     0.36100
C1239       C  0.04592909  0.57179286  0.09868703     0.05600
F1240       F  0.04595474  0.62296204  0.06527829    -0.20200
H1241       H  0.99735284  0.64870319  0.05743225     0.15500
F1242       F  0.94168761  0.58774371  0.11139861    -0.23900
H1243       H  0.99132568  0.56205346  0.12009592     0.17300
C1244       C  0.05731581  0.56652424  0.12634152     0.25300
C1245       C  0.08327496  0.55110941  0.12948239    -0.12400
C1246       C  0.09846012  0.54067401  0.10510278    -0.26500
C1247       C  0.08691583  0.54629326  0.07740831     0.36200
C1248       C  0.06099746  0.56153817  0.07439511    -0.28100
F1249       F  0.04380960  0.57702126  0.15022123    -0.20200
H1250       H  0.09145033  0.54734273  0.15110108     0.15500
F1251       F  0.10054692  0.53717630  0.05304735    -0.23900
H1252       H  0.05263572  0.56547206  0.05286331     0.17300
C1253       C  0.38225684  0.55414416  0.25044789    -0.28000
C1254       C  0.38362785  0.52431055  0.24499020     0.05600
C1255       C  0.40841097  0.50895256  0.25385831     0.25200
C1256       C  0.43214761  0.52375852  0.26580603    -0.12500
C1257       C  0.43141723  0.55396864  0.26899668    -0.26400
C1258       C  0.40580648  0.56882606  0.26224556     0.36100
C1259       C  0.36082903  0.51089174  0.22659437     0.05600
F1260       F  0.41051948  0.48009973  0.24909688    -0.20200
H1261       H  0.45166194  0.51189197  0.27095278     0.15500
F1262       F  0.40390688  0.59783045  0.26623192    -0.23900
H1263       H  0.36326072  0.56637852  0.24429052     0.17300
C1264       C  0.34540214  0.48598923  0.23482886     0.25300
C1265       C  0.32306175  0.47523406  0.21715419    -0.12400
C1266       C  0.31575716  0.48904585  0.19093403    -0.26500
C1267       C  0.33205878  0.51348994  0.18253737     0.36200
C1268       C  0.35404832  0.52411534  0.20016912    -0.28100
F1269       F  0.35112613  0.47273596  0.26037702    -0.20200
H1270       H  0.31109664  0.45645054  0.22432219     0.15500
F1271       F  0.32683672  0.52756005  0.15729765    -0.23900
H1272       H  0.36591788  0.54301834  0.19308827     0.17300
C1273       C  0.26835136  0.64361930  0.96813662    -0.28000
C1274       C  0.26752676  0.63466485  0.99713677     0.05600
C1275       C  0.28278817  0.65049798  0.01796585     0.25200
C1276       C  0.29914990  0.67453889  0.00987350    -0.12500
C1277       C  0.30064536  0.68345468  0.98078259    -0.26400
C1278       C  0.28456924  0.66797614  0.95996210     0.36100
C1279       C  0.25317344  0.60743373  0.00578371     0.05600
F1280       F  0.28265012  0.64201264  0.04608830    -0.20200
H1281       H  0.31095697  0.68604628  0.02648667     0.15500
F1282       F  0.28539941  0.67559255  0.93161701    -0.23900
H1283       H  0.25690501  0.63140169  0.95178316     0.17300
C1284       C  0.22612519  0.60768088  0.01969392     0.25300
C1285       C  0.21563510  0.58259363  0.03315731    -0.12400
C1286       C  0.23227721  0.55720911  0.03332668    -0.26500
C1287       C  0.25852360  0.55660926  0.01793606     0.36200
C1288       C  0.26877290  0.58151075  0.00420255    -0.28100
F1289       F  0.21073434  0.63256928  0.02169925    -0.20200
H1290       H  0.19551945  0.58355406  0.04513356     0.15500
F1291       F  0.27483062  0.53221630  0.01725295    -0.23900
H1292       H  0.28971631  0.58101495  0.99370693     0.17300
C1293       C  0.22727658  0.35848532  0.47352673    -0.28000
C1294       C  0.23958089  0.36046043  0.50121523     0.05600
C1295       C  0.23863613  0.33636844  0.51972972     0.25200
C1296       C  0.22443152  0.31124722  0.51109755    -0.12500
C1297       C  0.21131346  0.30959654  0.48379442    -0.26400
C1298       C  0.21348112  0.33310409  0.46469855     0.36100
C1299       C  0.25051145  0.38842691  0.51199870     0.05600
F1300       F  0.24966970  0.33779964  0.54690203    -0.20200
H1301       H  0.22276983  0.29337501  0.52615745     0.15500
F1302       F  0.20045845  0.33228060  0.43841036    -0.23900
H1303       H  0.22766573  0.37691981  0.45908904     0.17300
C1304       C  0.27812653  0.39068387  0.52444508     0.25300
C1305       C  0.28635391  0.41610316  0.53854013    -0.12400
C1306       C  0.26704979  0.43939691  0.54052791    -0.26500
C1307       C  0.24021720  0.43783244  0.52643449     0.36200
C1308       C  0.23206168  0.41251062  0.51223553    -0.28100
F1309       F  0.29673154  0.36801084  0.52367565    -0.20200
H1310       H  0.30718319  0.41705755  0.54917653     0.15500
F1311       F  0.22171663  0.46061721  0.52692969    -0.23900
H1312       H  0.21078247  0.41123563  0.50256471     0.17300
C1313       C  0.04275493  0.27619973  0.60428427    -0.28000
C1314       C  0.01699586  0.26189120  0.61132430     0.05600
C1315       C  0.00943092  0.23694331  0.59567898     0.25200
C1316       C  0.02728402  0.22696907  0.57310452    -0.12500
C1317       C  0.05292286  0.24172873  0.56567869    -0.26400
C1318       C  0.06041176  0.26653027  0.58183939     0.36100
C1319       C  0.99837239  0.27443261  0.63442262     0.05600
F1320       F  0.98436471  0.22287132  0.60145321    -0.20200
H1321       H  0.02076427  0.20794397  0.56115315     0.15500
F1322       F  0.08464322  0.28197170  0.57592109    -0.23900
H1323       H  0.04916803  0.29533028  0.61616315     0.17300
C1324       C  0.99058438  0.25865896  0.65933035     0.25300
C1325       C  0.97847158  0.27292965  0.68335400    -0.12400
C1326       C  0.97435950  0.30302648  0.68285747    -0.26500
C1327       C  0.98016800  0.31824496  0.65721542     0.36200
C1328       C  0.99181543  0.30404299  0.63327309    -0.28100
F1329       F  0.99686140  0.23008544  0.66137226    -0.20200
H1330       H  0.97424979  0.26085944  0.70298738     0.15500
F1331       F  0.97577909  0.34721728  0.65578223    -0.23900
H1332       H  0.99726922  0.31657001  0.61423008     0.17300
C1333       C  0.94153637  0.05001555  0.43211026    -0.28000
C1334       C  0.95797874  0.06181183  0.40946166     0.05600
C1335       C  0.94767290  0.05903645  0.38096067     0.25200
C1336       C  0.92128289  0.04511135  0.37545244    -0.12500
C1337       C  0.90439897  0.03392397  0.39824929    -0.26400
C1338       C  0.91505302  0.03652862  0.42676363     0.36100
C1339       C  0.98450803  0.07886003  0.41615734     0.05600
F1340       F  0.96245625  0.07090994  0.35855279    -0.20200
H1341       H  0.91387422  0.04352492  0.35329405     0.15500
F1342       F  0.89984295  0.02642448  0.44975693    -0.23900
H1343       H  0.94906201  0.05165287  0.45423408     0.17300
C1344       C  0.98337728  0.10085319  0.43705923     0.25300
C1345       C  0.00772389  0.11760509  0.44296817    -0.12400
C1346       C  0.03410796  0.11309490  0.42832132    -0.26500
C1347       C  0.03547935  0.09063442  0.40774207     0.36200
C1348       C  0.01085517  0.07378600  0.40171008    -0.28100
F1349       F  0.95833691  0.10690917  0.45118075    -0.20200
H1350       H  0.00556959  0.13466085  0.45884863     0.15500
F1351       F  0.06055638  0.08467525  0.39372614    -0.23900
H1352       H  0.01238929  0.05666888  0.38580977     0.17300
C1353       C  0.19021061  0.33947347  0.25965620    -0.28000
C1354       C  0.16247735  0.32793435  0.26358413     0.05600
C1355       C  0.14159792  0.33282739  0.24190283     0.25200
C1356       C  0.14837332  0.34952870  0.21729392    -0.12500
C1357       C  0.17607138  0.36175039  0.21378136    -0.26400
C1358       C  0.19703550  0.35596611  0.23526624     0.36100
C1359       C  0.15575473  0.31202051  0.29098744     0.05600
F1360       F  0.11475028  0.32129307  0.24438078    -0.20200
H1361       H  0.13175234  0.35329976  0.20125211     0.15500
F1362       F  0.22432144  0.36643834  0.23311865    -0.23900
H1363       H  0.20665796  0.33630459  0.27601355     0.17300
C1364       C  0.17456170  0.29049538  0.30151015     0.25300
C1365       C  0.17009912  0.27804440  0.32882367    -0.12400
C1366       C  0.14650265  0.28624888  0.34624857    -0.26500
C1367       C  0.12718890  0.30720484  0.33535630     0.36200
C1368       C  0.13190778  0.31997758  0.30813770    -0.28100
F1369       F  0.19714730  0.28121038  0.28518321    -0.20200
H1370       H  0.18494254  0.26149267  0.33615066     0.15500
F1371       F  0.10420708  0.31604951  0.35132790    -0.23900
H1372       H  0.11731582  0.33675080  0.30080941     0.17300
C1373       C  0.06227146  0.00179881  0.57553877    -0.28000
C1374       C  0.09048677  0.01294846  0.57595953     0.05600
C1375       C  0.11201008  0.99765770  0.59119004     0.25200
C1376       C  0.10522056  0.97199591  0.60584685    -0.12500
C1377       C  0.07673083  0.96157652  0.60639255    -0.26400
C1378       C  0.05534012  0.97663888  0.59078473     0.36100
C1379       C  0.09670297  0.04125613  0.56187225     0.05600
F1380       F  0.13911464  0.00854744  0.59367508    -0.20200
H1381       H  0.12187179  0.96131387  0.61837086     0.15500
F1382       F  0.02747477  0.96752474  0.59093547    -0.23900
H1383       H  0.04533211  0.01302505  0.56390632     0.17300
C1384       C  0.12079718  0.04495713  0.54365585     0.25300
C1385       C  0.12641099  0.07184274  0.53097160    -0.12400
C1386       C  0.10794533  0.09556200  0.53572383    -0.26500
C1387       C  0.08364143  0.09177487  0.55369227     0.36200
C1388       C  0.07821093  0.06494376  0.56662419    -0.28100
F1389       F  0.13843350  0.02237776  0.53731764    -0.20200
H1390       H  0.14496033  0.07389874  0.51680222     0.15500
F1391       F  0.06539742  0.11407825  0.55926110    -0.23900
H1392       H  0.05961676  0.06275261  0.58071035     0.17300
C1393       C  0.44234382  0.99100590  0.08377206    -0.28000
C1394       C  0.41388389  0.98253273  0.07769679     0.05600
C1395       C  0.39107408  0.00066533  0.08683675     0.25200
C1396       C  0.39678212  0.02594158  0.10275659    -0.12500
C1397       C  0.42530242  0.03366041  0.10981730    -0.26400
C1398       C  0.44806724  0.01621154  0.09931993     0.36100
C1399       C  0.40853145  0.95424564  0.06297965     0.05600
F1400       F  0.36326651  0.99395873  0.08043293    -0.20200
H1401       H  0.37883963  0.03893697  0.11034962     0.15500
F1402       F  0.47608754  0.02312185  0.10453748    -0.23900
H1403       H  0.46036666  0.97752179  0.07732070     0.17300
C1404       C  0.42521938  0.94560737  0.03892556     0.25300
C1405       C  0.42130669  0.91833165  0.02642440    -0.12400
C1406       C  0.40035633  0.89916400  0.03711862    -0.26500
C1407       C  0.38352280  0.90773287  0.06104049     0.36200
C1408       C  0.38777800  0.93486912  0.07391564    -0.28100
F1409       F  0.44480445  0.96383686  0.02689226    -0.20200
H1410       H  0.43404862  0.91256282  0.00762682     0.15500
F1411       F  0.36335384  0.88967450  0.07234807    -0.23900
H1412       H  0.37510518  0.94054844  0.09278875     0.17300
C1413       C  0.29802916  0.17355341  0.28301705    -0.28000
C1414       C  0.28861868  0.15654364  0.30645947     0.05600
C1415       C  0.30736099  0.13493945  0.31705411     0.25200
C1416       C  0.33466094  0.13070211  0.30453615    -0.12500
C1417       C  0.34427639  0.14833837  0.28174066    -0.26400
C1418       C  0.32560697  0.16987647  0.27109338     0.36100
C1419       C  0.26018479  0.16264144  0.32074383     0.05600
F1420       F  0.29983006  0.11854218  0.34019442    -0.20200
H1421       H  0.34856226  0.11390267  0.31306559     0.15500
F1422       F  0.33359676  0.18682560  0.24850096    -0.23900
H1423       H  0.28396223  0.18982156  0.27379072     0.17300
C1424       C  0.25173771  0.19129505  0.32649633     0.25300
C1425       C  0.22656145  0.19703831  0.34209570    -0.12400
C1426       C  0.20937687  0.17457182  0.35334177    -0.26500
C1427       C  0.21703238  0.14588685  0.34669329     0.36200
C1428       C  0.24197961  0.14008253  0.33023155    -0.28100
F1429       F  0.26885134  0.21390892  0.31899559    -0.20200
H1430       H  0.22141106  0.21938380  0.34681398     0.15500
F1431       F  0.20174405  0.12343949  0.35774373    -0.23900
H1432       H  0.24755402  0.11781461  0.32572091     0.17300
C1433       C  0.31649115  0.30454139  0.12083389    -0.28000
C1434       C  0.30700768  0.28753630  0.14419858     0.05600
C1435       C  0.28484602  0.29823674  0.16216833     0.25200
C1436       C  0.27293890  0.32549480  0.15720791    -0.12500
C1437       C  0.28258213  0.34262422  0.13410978    -0.26400
C1438       C  0.30435912  0.33187102  0.11574045     0.36100
C1439       C  0.32251141  0.26051823  0.15209570     0.05600
F1440       F  0.27480355  0.28236450  0.18473920    -0.20200
H1441       H  0.25584603  0.33312844  0.17132670     0.15500
F1442       F  0.31470555  0.34825055  0.09367651    -0.23900
H1443       H  0.33399257  0.29708636  0.10715596     0.17300
C1444       C  0.32819717  0.23824785  0.13205781     0.25300
C1445       C  0.34460597  0.21393982  0.14032144    -0.12400
C1446       C  0.35565657  0.21161017  0.16861400    -0.26500
C1447       C  0.34890701  0.23372771  0.18866165     0.36200
C1448       C  0.33281314  0.25767950  0.18037189    -0.28100
F1449       F  0.31795413  0.24002046  0.10461088    -0.20200
H1450       H  0.34940963  0.19746442  0.12439035     0.15500
F1451       F  0.35841857  0.23288446  0.21640664    -0.23900
H1452       H  0.32909566  0.27463139  0.19611214     0.17300
C1453       C  0.57557372  0.10133103  0.98880680    -0.28000
C1454       C  0.58057387  0.08577831  0.01457492     0.05600
C1455       C  0.60212858  0.06437170  0.01463547     0.25200
C1456       C  0.61776263  0.05837735  0.98964079    -0.12500
C1457       C  0.61285918  0.07367875  0.96377970    -0.26400
C1458       C  0.59173737  0.09559471  0.96367921     0.36100
C1459       C  0.56381919  0.09181223  0.04148670     0.05600
F1460       F  0.60881413  0.04960876  0.03912055    -0.20200
H1461       H  0.63426295  0.04182805  0.99086775     0.15500
F1462       F  0.58633838  0.11111617  0.93936201    -0.23900
H1463       H  0.55887405  0.11770066  0.98796943     0.17300
C1464       C  0.55865908  0.12026321  0.05085441     0.25300
C1465       C  0.54465444  0.12540594  0.07717805    -0.12400
C1466       C  0.53555435  0.10241459  0.09497702    -0.26500
C1467       C  0.54044209  0.07391494  0.08540012     0.36200
C1468       C  0.55402599  0.06882224  0.05885198    -0.28100
F1469       F  0.56790117  0.14321423  0.03509901    -0.20200
H1470       H  0.54114951  0.14761186  0.08367880     0.15500
F1471       F  0.53206025  0.05083176  0.10145134    -0.23900
H1472       H  0.55693130  0.04667654  0.05187414     0.17300
C1473       C  0.51352004  0.28089249  0.39198802    -0.28000
C1474       C  0.51415600  0.25208085  0.38247567     0.05600
C1475       C  0.52792587  0.23115700  0.39948749     0.25200
C1476       C  0.54169338  0.23892379  0.42505433    -0.12500
C1477       C  0.54249146  0.26787340  0.43425967    -0.26400
C1478       C  0.52762847  0.28886051  0.41775382     0.36100
C1479       C  0.50346454  0.24352336  0.35361462     0.05600
F1480       F  0.52896507  0.20317849  0.39071997    -0.20200
H1481       H  0.55248150  0.22213364  0.43729941     0.15500
F1482       F  0.52796949  0.31712895  0.42556375    -0.23900
H1483       H  0.50317059  0.29731363  0.37889437     0.17300
C1484       C  0.47395966  0.23854907  0.34844050     0.25300
C1485       C  0.46523173  0.22387366  0.32334820    -0.12400
C1486       C  0.48589317  0.21360399  0.30349306    -0.26500
C1487       C  0.51522332  0.22043515  0.30791620     0.36200
C1488       C  0.52378708  0.23529006  0.33268941    -0.28100
F1489       F  0.45389359  0.24586351  0.36857932    -0.20200
H1490       H  0.44256119  0.21884275  0.32045564     0.15500
F1491       F  0.53585115  0.21168929  0.28890802    -0.23900
H1492       H  0.54661579  0.23890896  0.33642977     0.17300
C1493       C  0.59554200  0.01088224  0.23937581    -0.28000
C1494       C  0.61572672  0.02498389  0.25711821     0.05600
C1495       C  0.61265668  0.05475075  0.26209145     0.25200
C1496       C  0.58893006  0.06971695  0.25107749    -0.12500
C1497       C  0.56763822  0.05551590  0.23465010    -0.26400
C1498       C  0.57161096  0.02596844  0.22818554     0.36100
C1499       C  0.63814465  0.00859809  0.27317230     0.05600
F1500       F  0.63227610  0.06923304  0.27840741    -0.20200
H1501       H  0.58696007  0.09251978  0.25598746     0.15500
F1502       F  0.55165931  0.01126086  0.21255305    -0.23900
H1503       H  0.59755100  0.98791099  0.23538114     0.17300
C1504       C  0.63772525  0.00890723  0.30354114     0.25300
C1505       C  0.66050547  0.99700708  0.31924537    -0.12400
C1506       C  0.68406769  0.98403662  0.30512153    -0.26500
C1507       C  0.68359352  0.98180671  0.27470324     0.36200
C1508       C  0.66079249  0.99422786  0.25883819    -0.28100
F1509       F  0.61541872  0.02134206  0.31803941    -0.20200
H1510       H  0.66000279  0.99849028  0.34263789     0.15500
F1511       F  0.70583265  0.96917483  0.26029691    -0.23900
H1512       H  0.66132112  0.99356127  0.23542084     0.17300
loop_ 
_geom_bond_atom_site_label_1 
_geom_bond_atom_site_label_2 
_geom_bond_distance 
_geom_bond_site_symmetry_2 
_ccdc_geom_bond_type 
Zr1           O2   2.439       .  S
Zr1           O3   2.435       .  S
Zr1           O4   2.402       .  S
Zr1           O7   2.441       .  S
Zr1           O9   2.380       .  S
Zr1          O10   2.375       .  S
Zr1          O11   2.412       .  S
Zr1          O12   2.398       .  S
O2           H58   0.990       .  S
O2           H66   0.990       .  S
O3           C23   1.285       .  A
O4           C25   1.279       .  A
O5          Zr15   2.416       .  S
O5           C24   1.282       .  A
O6          Zr14   2.483       .  S
O6           C25   1.294       .  A
O7           C24   1.286       .  A
O8          Zr16   2.435       .  S
O8           C23   1.283       .  A
O9          Zr14   2.394       .  S
O9          Zr16   2.375       .  S
O10         Zr15   2.394       .  S
O10         Zr16   2.373       .  S
O10          H45   0.966       .  S
O11         Zr14   2.407       .  S
O11         Zr31   2.382       .  S
O11          H48   0.965       .  S
O12         Zr15   2.385       .  S
O12         Zr31   2.396       .  S
Zr13         O38   2.440       .  S
Zr13         O32   2.435       .  S
Zr13         O40   2.456       .  S
Zr13         O28   2.414       .  S
Zr13         O19   2.398       .  S
Zr13         O20   2.416       .  S
Zr13         O21   2.385       .  S
Zr13         O22   2.378       .  S
Zr14         O33   2.436       .  S
Zr14         O26   2.435       .  S
Zr14         O27   2.469       .  S
Zr14         O20   2.415       .  S
Zr14         O21   2.398       .  S
Zr15         O17   2.436       .  S
Zr15         O39   2.436       .  S
Zr15         O41   2.419       .  S
Zr15         O19   2.390       .  S
Zr15         O22   2.392       .  S
Zr16         O42   2.436       .  S
Zr16         O43   2.435       .  S
Zr16         O18   2.438       .  S
Zr16         O19   2.403       .  S
Zr16         O20   2.398       .  S
O17          H54   0.990       .  S
O18          H49   0.991       .  S
O18          H63   0.990       .  S
O20          H46   0.965       .  S
O21         Zr31   2.375       .  S
O22         Zr31   2.375       .  S
O22          H47   0.966       .  S
C23        C1417   1.485       .  S
C24        C1486   1.481       .  S
C25        C1446   1.493       .  S
O26          H62   0.990       .  S
O27          C29   1.292       .  A
O28          C29   1.281       .  A
C29        C1397   1.492       .  S
O30         Zr31   2.439       .  S
O30          H59   0.990       .  S
Zr31         O34   2.438       .  S
Zr31         O35   2.440       .  S
Zr31         O36   2.420       .  S
O32          C37   1.284       .  A
O33          H50   0.990       .  S
O33          H65   0.990       .  S
O34          H51   0.990       .  S
O35          H55   0.990       .  S
O35          H64   0.990       .  S
O36          C37   1.282       .  A
C37        C1466   1.489       .  S
O38          H57   0.990       .  S
O38          H61   0.991       .  S
O39          H53   0.990       .  S
O39          H60   0.990       .  S
O40          C44   1.288       .  A
O41          C44   1.283       .  A
O42          H52   0.990       .  S
O43          H56   0.990       .  S
C44        C1497   1.491       .  S
Zr67         O68   2.441       .  S
Zr67         O69   2.441       .  S
Zr67         O70   2.421       .  S
Zr67         O73   2.452       .  S
Zr67         O75   2.386       .  S
Zr67         O76   2.379       .  S
Zr67         O77   2.416       .  S
Zr67         O78   2.401       .  S
O68         H124   0.991       .  S
O68         H132   0.990       .  S
O69          C89   1.285       .  A
O70          C91   1.283       .  A
O71         Zr81   2.418       .  S
O71          C90   1.282       .  A
O72         Zr80   2.476       .  S
O72          C91   1.293       .  A
O73          C90   1.288       .  A
O74         Zr82   2.427       .  S
O74          C89   1.283       .  A
O75         Zr80   2.399       .  S
O75         Zr82   2.379       .  S
O76         Zr81   2.389       .  S
O76         Zr82   2.376       .  S
O76         H111   0.966       .  S
O77         Zr80   2.414       .  S
O77         Zr97   2.399       .  S
O77         H114   0.965       .  S
O78         Zr81   2.390       .  S
O78         Zr97   2.404       .  S
Zr79        O104   2.443       .  S
Zr79         O98   2.445       .  S
Zr79        O106   2.437       .  S
Zr79         O94   2.402       .  S
Zr79         O85   2.400       .  S
Zr79         O86   2.410       .  S
Zr79         O87   2.374       .  S
Zr79         O88   2.376       .  S
Zr80         O99   2.435       .  S
Zr80         O92   2.436       .  S
Zr80         O93   2.483       .  S
Zr80         O86   2.404       .  S
Zr80         O87   2.393       .  S
Zr81         O83   2.437       .  S
Zr81        O105   2.437       .  S
Zr81        O107   2.417       .  S
Zr81         O85   2.383       .  S
Zr81         O88   2.396       .  S
Zr82        O108   2.438       .  S
Zr82        O109   2.436       .  S
Zr82         O84   2.436       .  S
Zr82         O85   2.396       .  S
Zr82         O86   2.392       .  S
O83         H120   0.990       .  S
O84         H115   0.991       .  S
O84         H129   0.989       .  S
O86         H112   0.965       .  S
O87         Zr97   2.373       .  S
O88         Zr97   2.372       .  S
O88         H113   0.966       .  S
C89        C1386   1.487       .  S
C90        C1317   1.496       .  S
C91        C1346   1.498       .  S
O92         H128   0.990       .  S
O93          C95   1.294       .  A
O94          C95   1.281       .  A
C95        C1426   1.491       .  S
O96         Zr97   2.438       .  S
O96         H125   0.990       .  S
Zr97        O100   2.436       .  S
Zr97        O101   2.440       .  S
Zr97        O102   2.450       .  S
O98         C103   1.287       .  A
O99         H116   0.990       .  S
O99         H131   0.990       .  S
O100        H117   0.990       .  S
O101        H121   0.990       .  S
O101        H130   0.990       .  S
O102        C103   1.287       .  A
C103       C1366   1.497       .  S
O104        H123   0.990       .  S
O104        H127   0.990       .  S
O105        H119   0.990       .  S
O105        H126   0.990       .  S
O106        C110   1.285       .  A
O107        C110   1.282       .  A
O108        H118   0.990       .  S
O109        H122   0.990       .  S
C110       C1297   1.469       .  S
Zr133       O134   2.439       .  S
Zr133       O135   2.439       .  S
Zr133       O136   2.436       .  S
Zr133       O139   2.463       .  S
Zr133       O141   2.383       .  S
Zr133       O142   2.380       .  S
Zr133       O143   2.415       .  S
Zr133       O144   2.402       .  S
O134        H190   0.990       .  S
O134        H198   0.990       .  S
O135        C155   1.285       .  A
O136        C157   1.285       .  A
O137       Zr147   2.415       .  S
O137        C156   1.282       .  A
O138       Zr146   2.467       .  S
O138        C157   1.291       .  A
O139        C156   1.290       .  A
O140       Zr148   2.418       .  S
O140        C155   1.280       .  A
O141       Zr146   2.399       .  S
O141       Zr148   2.382       .  S
O142       Zr147   2.392       .  S
O142       Zr148   2.374       .  S
O142        H177   0.966       .  S
O143       Zr146   2.412       .  S
O143       Zr163   2.393       .  S
O143        H180   0.965       .  S
O144       Zr147   2.390       .  S
O144       Zr163   2.399       .  S
Zr145       O170   2.446       .  S
Zr145       O164   2.438       .  S
Zr145       O172   2.453       .  S
Zr145       O160   2.420       .  S
Zr145       O151   2.401       .  S
Zr145       O152   2.412       .  S
Zr145       O153   2.381       .  S
Zr145       O154   2.377       .  S
Zr146       O165   2.435       .  S
Zr146       O158   2.435       .  S
Zr146       O159   2.469       .  S
Zr146       O152   2.408       .  S
Zr146       O153   2.392       .  S
Zr147       O149   2.435       .  S
Zr147       O171   2.437       .  S
Zr147       O173   2.423       .  S
Zr147       O151   2.384       .  S
Zr147       O154   2.391       .  S
Zr148       O174   2.435       .  S
Zr148       O175   2.436       .  S
Zr148       O150   2.437       .  S
Zr148       O151   2.394       .  S
Zr148       O152   2.392       .  S
O149        H186   0.990       .  S
O150        H181   0.990       .  S
O150        H195   0.990       .  S
O152        H178   0.965       .  S
O153       Zr163   2.374       .  S
O154       Zr163   2.374       .  S
O154        H179   0.966       .  S
C155       C1437   1.477       .  S
C156       C1266   1.499       .  S
C157       C1357   1.501       .  S
O158        H194   0.990       .  S
O159        C161   1.292       .  A
O160        C161   1.283       .  A
C161       C1217   1.490       .  S
O162       Zr163   2.435       .  S
O162        H191   0.990       .  S
Zr163       O166   2.435       .  S
Zr163       O167   2.438       .  S
Zr163       O168   2.434       .  S
O164        C169   1.286       .  A
O165        H182   0.990       .  S
O165        H197   0.990       .  S
O166        H183   0.990       .  S
O167        H187   0.990       .  S
O167        H196   0.990       .  S
O168        C169   1.284       .  A
C169       C1246   1.496       .  S
O170        H189   0.990       .  S
O170        H193   0.990       .  S
O171        H185   0.990       .  S
O171        H192   0.990       .  S
O172        C176   1.288       .  A
O173        C176   1.283       .  A
O174        H184   0.990       .  S
O175        H188   0.990       .  S
C176       C1286   1.477       .  S
Zr199       O200   2.439       .  S
Zr199       O201   2.437   1_655  S
Zr199       O202   2.426       .  S
Zr199       O205   2.449   1_655  S
Zr199       O207   2.381       .  S
Zr199       O208   2.381   1_655  S
Zr199       O209   2.412       .  S
Zr199       O210   2.400       .  S
O200        H256   0.990       .  S
O200        H264   0.990       .  S
O201        C221   1.285       .  A
O202        C223   1.284       .  A
O203       Zr213   2.423   1_455  S
O203        C222   1.284       .  A
O204       Zr212   2.457       .  S
O204        C223   1.289       .  A
O205        C222   1.287       .  A
O206       Zr214   2.438   1_455  S
O206        C221   1.284       .  A
O207       Zr212   2.389       .  S
O207       Zr214   2.372       .  S
O208       Zr213   2.394   1_455  S
O208       Zr214   2.377   1_455  S
O208        H243   0.966       .  S
O209       Zr212   2.407       .  S
O209       Zr229   2.392       .  S
O209        H246   0.966       .  S
O210       Zr213   2.386       .  S
O210       Zr229   2.393       .  S
Zr211       O236   2.439       .  S
Zr211       O230   2.438       .  S
Zr211       O238   2.449       .  S
Zr211       O226   2.416       .  S
Zr211       O217   2.398       .  S
Zr211       O218   2.412       .  S
Zr211       O219   2.380       .  S
Zr211       O220   2.375       .  S
Zr212       O231   2.435       .  S
Zr212       O224   2.435       .  S
Zr212       O225   2.455       .  S
Zr212       O218   2.409       .  S
Zr212       O219   2.390       .  S
Zr213       O215   2.436       .  S
Zr213       O237   2.435   1_655  S
Zr213       O239   2.427       .  S
Zr213       O217   2.385       .  S
Zr213       O220   2.389       .  S
Zr214       O240   2.438   1_655  S
Zr214       O241   2.437   1_655  S
Zr214       O216   2.436       .  S
Zr214       O217   2.401       .  S
Zr214       O218   2.399       .  S
O215        H252   0.990   1_655  S
O216        H247   0.991       .  S
O216        H261   0.990       .  S
O218        H244   0.966       .  S
O219       Zr229   2.376       .  S
O220       Zr229   2.373       .  S
O220        H245   0.967       .  S
C221       C1226   1.483       .  S
C222       C1137   1.482       .  S
C223       C1177   1.489       .  S
O224        H260   0.990       .  S
O225        C227   1.289       .  A
O226        C227   1.282       .  A
C227       C1157   1.480       .  S
O228       Zr229   2.439       .  S
O228        H257   0.990       .  S
Zr229       O232   2.437       .  S
Zr229       O233   2.440       .  S
Zr229       O234   2.422       .  S
O230        C235   1.287       .  A
O231        H248   0.990       .  S
O231        H263   0.990       .  S
O232        H249   0.990       .  S
O233        H253   0.990       .  S
O233        H262   0.990       .  S
O234        C235   1.281       .  A
C235       C1206   1.487       .  S
O236        H255   0.990       .  S
O236        H259   0.990       .  S
O237        H251   0.990       .  S
O237        H258   0.990       .  S
O238        C242   1.287       .  A
O239        C242   1.284       .  A
O240        H250   0.990       .  S
O241        H254   0.990   1_455  S
C242       C1326   1.479       .  S
Zr265       O266   2.440       .  S
Zr265       O267   2.438       .  S
Zr265       O268   2.411       .  S
Zr265       O271   2.449       .  S
Zr265       O273   2.379       .  S
Zr265       O274   2.377       .  S
Zr265       O275   2.415       .  S
Zr265       O276   2.404       .  S
O266        H322   0.991       .  S
O266        H330   0.990       .  S
O267        C287   1.284       .  A
O268        C289   1.281       .  A
O269       Zr279   2.415       .  S
O269        C288   1.283       .  A
O270       Zr278   2.466       .  S
O270        C289   1.290       .  A
O271        C288   1.287       .  A
O272       Zr280   2.411       .  S
O272        C287   1.279       .  A
O273       Zr278   2.399       .  S
O273       Zr280   2.379       .  S
O274       Zr279   2.390       .  S
O274       Zr280   2.372       .  S
O274        H309   0.966       .  S
O275       Zr278   2.411       .  S
O275       Zr295   2.392       .  S
O275        H312   0.965       .  S
O276       Zr279   2.389       .  S
O276       Zr295   2.404       .  S
Zr277       O302   2.439       .  S
Zr277       O296   2.432   1_565  S
Zr277       O304   2.442   1_565  S
Zr277       O292   2.412       .  S
Zr277       O283   2.398       .  S
Zr277       O284   2.410       .  S
Zr277       O285   2.374       .  S
Zr277       O286   2.377   1_565  S
Zr278       O297   2.436       .  S
Zr278       O290   2.435       .  S
Zr278       O291   2.467       .  S
Zr278       O284   2.411       .  S
Zr278       O285   2.390       .  S
Zr279       O281   2.434   1_565  S
Zr279       O303   2.435       .  S
Zr279       O305   2.418   1_565  S
Zr279       O283   2.383       .  S
Zr279       O286   2.392   1_565  S
Zr280       O306   2.438       .  S
Zr280       O307   2.434       .  S
Zr280       O282   2.437       .  S
Zr280       O283   2.394       .  S
Zr280       O284   2.379       .  S
O281        H318   0.990       .  S
O282        H313   0.990       .  S
O282        H327   0.990       .  S
O284        H310   0.964       .  S
O285       Zr295   2.375       .  S
O286       Zr295   2.376   1_545  S
O286        H311   0.965       .  S
C287       C1057   1.474       .  S
C288       C1506   1.483       .  S
C289       C1077   1.485       .  S
O290        H326   0.990       .  S
O291        C293   1.291       .  A
O292        C293   1.282       .  A
C293       C1097   1.485       .  S
O294       Zr295   2.441   1_545  S
O294        H323   0.990       .  S
Zr295       O298   2.437       .  S
Zr295       O299   2.443   1_565  S
Zr295       O300   2.441   1_565  S
O296        C301   1.284       .  A
O297        H314   0.991       .  S
O297        H329   0.990       .  S
O298        H315   0.990       .  S
O299        H319   0.990       .  S
O299        H328   0.990       .  S
O300        C301   1.286       .  A
C301       C1337   1.495       .  S
O302        H321   0.990       .  S
O302        H325   0.990       .  S
O303        H317   0.990       .  S
O303        H324   0.990   1_565  S
O304        C308   1.285       .  A
O305        C308   1.283       .  A
O306        H316   0.990       .  S
O307        H320   0.990       .  S
C308       C1126   1.477       .  S
Zr331       O332   2.440       .  S
Zr331       O333   2.439       .  S
Zr331       O334   2.425       .  S
Zr331       O337   2.468       .  S
Zr331       O339   2.385       .  S
Zr331       O340   2.375       .  S
Zr331       O341   2.413       .  S
Zr331       O342   2.400       .  S
O332        H388   0.990       .  S
O332        H396   0.990       .  S
O333        C353   1.286       .  A
O334        C355   1.283       .  A
O335       Zr345   2.413       .  S
O335        C354   1.282       .  A
O336       Zr344   2.461       .  S
O336        C355   1.290       .  A
O337        C354   1.291       .  A
O338       Zr346   2.414       .  S
O338        C353   1.280       .  A
O339       Zr344   2.394       .  S
O339       Zr346   2.379       .  S
O340       Zr345   2.388       .  S
O340       Zr346   2.374       .  S
O340        H375   0.965       .  S
O341       Zr344   2.410       .  S
O341       Zr361   2.387       .  S
O341        H378   0.965       .  S
O342       Zr345   2.388       .  S
O342       Zr361   2.399       .  S
Zr343       O368   2.441       .  S
Zr343       O362   2.436   1_455  S
Zr343       O370   2.446   1_455  S
Zr343       O358   2.421       .  S
Zr343       O349   2.399       .  S
Zr343       O350   2.410       .  S
Zr343       O351   2.379       .  S
Zr343       O352   2.377   1_455  S
Zr344       O363   2.436       .  S
Zr344       O356   2.437       .  S
Zr344       O357   2.465       .  S
Zr344       O350   2.406       .  S
Zr344       O351   2.395       .  S
Zr345       O347   2.435   1_455  S
Zr345       O369   2.437       .  S
Zr345       O371   2.417   1_455  S
Zr345       O349   2.380       .  S
Zr345       O352   2.396   1_455  S
Zr346       O372   2.436       .  S
Zr346       O373   2.436       .  S
Zr346       O348   2.436       .  S
Zr346       O349   2.392       .  S
Zr346       O350   2.388       .  S
O347        H384   0.990       .  S
O348        H379   0.990       .  S
O348        H393   0.990       .  S
O350        H376   0.965       .  S
O351       Zr361   2.378       .  S
O352       Zr361   2.374   1_655  S
O352        H377   0.965       .  S
C353       C1046   1.475       .  S
C354        C977   1.490       .  S
C355       C1017   1.483       .  S
O356        H392   0.990       .  S
O357        C359   1.292       .  A
O358        C359   1.282       .  A
C359       C1377   1.483       .  S
O360       Zr361   2.437       .  S
O360        H389   0.990   1_455  S
Zr361       O364   2.438       .  S
Zr361       O365   2.438   1_455  S
Zr361       O366   2.428   1_455  S
O362        C367   1.286       .  A
O363        H380   0.990       .  S
O363        H395   0.990       .  S
O364        H381   0.990       .  S
O365        H385   0.990       .  S
O365        H394   0.990       .  S
O366        C367   1.282       .  A
C367       C1106   1.479       .  S
O368        H387   0.991       .  S
O368        H391   0.990       .  S
O369        H383   0.990   1_455  S
O369        H390   0.990       .  S
O370        C374   1.288       .  A
O371        C374   1.283       .  A
O372        H382   0.990       .  S
O373        H386   0.990       .  S
C374        C997   1.481       .  S
Zr397       O398   2.440       .  S
Zr397       O399   2.446   1_556  S
Zr397       O400   2.405       .  S
Zr397       O403   2.440   1_556  S
Zr397       O405   2.379       .  S
Zr397       O406   2.375   1_556  S
Zr397       O407   2.413       .  S
Zr397       O408   2.403       .  S
O398        H454   0.990       .  S
O398        H462   0.991       .  S
O399        C419   1.287       .  A
O400        C421   1.280       .  A
O401       Zr411   2.422   1_554  S
O401        C420   1.285       .  A
O402       Zr410   2.451       .  S
O402        C421   1.288       .  A
O403        C420   1.287       .  A
O404       Zr412   2.432   1_554  S
O404        C419   1.283       .  A
O405       Zr410   2.394       .  S
O405       Zr412   2.374       .  S
O406       Zr411   2.390   1_554  S
O406       Zr412   2.369   1_554  S
O406        H441   0.966       .  S
O407       Zr410   2.405       .  S
O407       Zr427   2.395       .  S
O407        H444   0.966       .  S
O408       Zr411   2.391       .  S
O408       Zr427   2.399       .  S
Zr409       O434   2.443       .  S
Zr409       O428   2.437       .  S
Zr409       O436   2.445       .  S
Zr409       O424   2.406       .  S
Zr409       O415   2.396       .  S
Zr409       O416   2.410       .  S
Zr409       O417   2.378       .  S
Zr409       O418   2.376       .  S
Zr410       O429   2.436       .  S
Zr410       O422   2.434       .  S
Zr410       O423   2.455       .  S
Zr410       O416   2.403       .  S
Zr410       O417   2.386       .  S
Zr411       O413   2.435       .  S
Zr411       O435   2.435   1_556  S
Zr411       O437   2.436       .  S
Zr411       O415   2.380       .  S
Zr411       O418   2.390       .  S
Zr412       O438   2.436   1_556  S
Zr412       O439   2.434   1_556  S
Zr412       O414   2.435       .  S
Zr412       O415   2.401       .  S
Zr412       O416   2.395       .  S
O413        H450   0.990   1_556  S
O414        H445   0.990   1_556  S
O414        H459   0.990       .  S
O416        H442   0.965       .  S
O417       Zr427   2.373       .  S
O418       Zr427   2.377       .  S
O418        H443   0.966       .  S
C419       C1406   1.486       .  S
C420        C926   1.486       .  S
C421        C937   1.481       .  S
O422        H458   0.990       .  S
O423        C425   1.289       .  A
O424        C425   1.281       .  A
C425       C1037   1.487       .  S
O426       Zr427   2.439       .  S
O426        H455   0.990       .  S
Zr427       O430   2.438       .  S
Zr427       O431   2.439       .  S
Zr427       O432   2.428       .  S
O428        C433   1.286       .  A
O429        H446   0.990       .  S
O429        H461   0.990       .  S
O430        H447   0.990       .  S
O431        H451   0.990       .  S
O431        H460   0.990       .  S
O432        C433   1.283       .  A
C433        C957   1.482       .  S
O434        H453   0.990       .  S
O434        H457   0.990       .  S
O435        H449   0.990       .  S
O435        H456   0.990       .  S
O436        C440   1.287       .  A
O437        C440   1.286       .  A
O438        H448   0.990       .  S
O439        H452   0.990   1_554  S
C440       C1277   1.491       .  S
Zr463       O464   2.441       .  S
Zr463       O465   2.436       .  S
Zr463       O466   2.400       .  S
Zr463       O469   2.429       .  S
Zr463       O471   2.375       .  S
Zr463       O472   2.375       .  S
Zr463       O473   2.411       .  S
Zr463       O474   2.398       .  S
O464        H520   0.990       .  S
O464        H528   0.990       .  S
O465        C485   1.285       .  A
O466        C487   1.279       .  A
O467       Zr477   2.423       .  S
O467        C486   1.283       .  A
O468       Zr476   2.462       .  S
O468        C487   1.290       .  A
O469        C486   1.284       .  A
O470       Zr478   2.420       .  S
O470        C485   1.280       .  A
O471       Zr476   2.394       .  S
O471       Zr478   2.378       .  S
O472       Zr477   2.393       .  S
O472       Zr478   2.372       .  S
O472        H507   0.966       .  S
O473       Zr476   2.406       .  S
O473       Zr493   2.398       .  S
O473        H510   0.966       .  S
O474       Zr477   2.382       .  S
O474       Zr493   2.394       .  S
Zr475       O500   2.443       .  S
Zr475       O494   2.426       .  S
Zr475       O502   2.451       .  S
Zr475       O490   2.414       .  S
Zr475       O481   2.397       .  S
Zr475       O482   2.404       .  S
Zr475       O483   2.380       .  S
Zr475       O484   2.378       .  S
Zr476       O495   2.436       .  S
Zr476       O488   2.435       .  S
Zr476       O489   2.456       .  S
Zr476       O482   2.406       .  S
Zr476       O483   2.388       .  S
Zr477       O479   2.435       .  S
Zr477       O501   2.435       .  S
Zr477       O503   2.420       .  S
Zr477       O481   2.391       .  S
Zr477       O484   2.386       .  S
Zr478       O504   2.435       .  S
Zr478       O505   2.434       .  S
Zr478       O480   2.436       .  S
Zr478       O481   2.396       .  S
Zr478       O482   2.389       .  S
O479        H516   0.990       .  S
O480        H511   0.990       .  S
O480        H525   0.990       .  S
O482        H508   0.965       .  S
O483       Zr493   2.374       .  S
O484       Zr493   2.370       .  S
O484        H509   0.966       .  S
C485        C886   1.477       .  S
C486       C1306   1.469       .  S
C487        C906   1.483       .  S
O488        H524   0.990       .  S
O489        C491   1.290       .  A
O490        C491   1.282       .  A
C491        C966   1.489       .  S
O492       Zr493   2.439       .  S
O492        H521   0.990       .  S
Zr493       O496   2.439       .  S
Zr493       O497   2.440       .  S
Zr493       O498   2.433       .  S
O494        C499   1.283       .  A
O495        H512   0.990       .  S
O495        H527   0.990       .  S
O496        H513   0.990       .  S
O497        H517   0.990       .  S
O497        H526   0.990       .  S
O498        C499   1.284       .  A
C499       C1026   1.471       .  S
O500        H519   0.990       .  S
O500        H523   0.990       .  S
O501        H515   0.990       .  S
O501        H522   0.990       .  S
O502        C506   1.288       .  A
O503        C506   1.284       .  A
O504        H514   0.990       .  S
O505        H518   0.990       .  S
C506       C1146   1.493       .  S
Zr529       O530   2.440       .  S
Zr529       O531   2.438       .  S
Zr529       O532   2.411       .  S
Zr529       O535   2.450       .  S
Zr529       O537   2.385       .  S
Zr529       O538   2.377       .  S
Zr529       O539   2.409       .  S
Zr529       O540   2.400       .  S
O530        H586   0.990       .  S
O530        H594   0.991       .  S
O531        C551   1.286       .  A
O532        C553   1.282       .  A
O533       Zr543   2.429       .  S
O533        C552   1.285       .  A
O534       Zr542   2.460       .  S
O534        C553   1.290       .  A
O535        C552   1.287       .  A
O536       Zr544   2.429       .  S
O536        C551   1.283       .  A
O537       Zr542   2.393       .  S
O537       Zr544   2.377       .  S
O538       Zr543   2.388       .  S
O538       Zr544   2.372       .  S
O538        H573   0.966       .  S
O539       Zr542   2.403       .  S
O539       Zr559   2.393       .  S
O539        H576   0.965       .  S
O540       Zr543   2.385       .  S
O540       Zr559   2.402       .  S
Zr541       O566   2.444       .  S
Zr541       O560   2.439       .  S
Zr541       O568   2.451       .  S
Zr541       O556   2.415       .  S
Zr541       O547   2.403       .  S
Zr541       O548   2.412       .  S
Zr541       O549   2.378       .  S
Zr541       O550   2.382       .  S
Zr542       O561   2.436       .  S
Zr542       O554   2.435       .  S
Zr542       O555   2.457       .  S
Zr542       O548   2.406       .  S
Zr542       O549   2.387       .  S
Zr543       O545   2.434       .  S
Zr543       O567   2.437       .  S
Zr543       O569   2.421       .  S
Zr543       O547   2.386       .  S
Zr543       O550   2.397       .  S
Zr544       O570   2.435       .  S
Zr544       O571   2.435       .  S
Zr544       O546   2.436       .  S
Zr544       O547   2.398       .  S
Zr544       O548   2.392       .  S
O545        H582   0.989       .  S
O546        H577   0.990       .  S
O546        H591   0.990       .  S
O548        H574   0.965       .  S
O549       Zr559   2.372       .  S
O550       Zr559   2.373       .  S
O550        H575   0.966       .  S
C551        C897   1.478       .  S
C552       C1257   1.482       .  S
C553        C837   1.488       .  S
O554        H590   0.990       .  S
O555        C557   1.289       .  A
O556        C557   1.283       .  A
C557       C1066   1.486       .  S
O558       Zr559   2.437       .  S
O558        H587   0.990       .  S
Zr559       O562   2.434       .  S
Zr559       O563   2.438       .  S
Zr559       O564   2.441       .  S
O560        C565   1.286       .  A
O561        H578   0.990       .  S
O561        H593   0.990       .  S
O562        H579   0.990       .  S
O563        H583   0.990       .  S
O563        H592   0.990       .  S
O564        C565   1.285       .  A
C565        C857   1.486       .  S
O566        H585   0.990       .  S
O566        H589   0.990       .  S
O567        H581   0.990       .  S
O567        H588   0.990       .  S
O568        C572   1.288       .  A
O569        C572   1.284       .  A
O570        H580   0.990       .  S
O571        H584   0.990       .  S
C572        C917   1.484       .  S
Zr595       O596   2.439       .  S
Zr595       O597   2.440       .  S
Zr595       O598   2.415       .  S
Zr595       O601   2.439       .  S
Zr595       O603   2.378       .  S
Zr595       O604   2.375       .  S
Zr595       O605   2.406       .  S
Zr595       O606   2.401       .  S
O596        H652   0.990       .  S
O596        H660   0.990       .  S
O597        C617   1.286       .  A
O598        C619   1.282       .  A
O599       Zr609   2.423       .  S
O599        C618   1.285       .  A
O600       Zr608   2.466       .  S
O600        C619   1.291       .  A
O601        C618   1.286       .  A
O602       Zr610   2.423       .  S
O602        C617   1.282       .  A
O603       Zr608   2.392       .  S
O603       Zr610   2.375       .  S
O604       Zr609   2.388       .  S
O604       Zr610   2.366       .  S
O604        H639   0.966       .  S
O605       Zr608   2.407       .  S
O605       Zr625   2.383       .  S
O605        H642   0.965       .  S
O606       Zr609   2.389       .  S
O606       Zr625   2.399       .  S
Zr607       O632   2.446       .  S
Zr607       O626   2.443       .  S
Zr607       O634   2.444       .  S
Zr607       O622   2.404       .  S
Zr607       O613   2.398       .  S
Zr607       O614   2.410       .  S
Zr607       O615   2.378       .  S
Zr607       O616   2.378       .  S
Zr608       O627   2.435       .  S
Zr608       O620   2.435       .  S
Zr608       O621   2.468       .  S
Zr608       O614   2.411       .  S
Zr608       O615   2.391       .  S
Zr609       O611   2.434       .  S
Zr609       O633   2.436       .  S
Zr609       O635   2.429       .  S
Zr609       O613   2.384       .  S
Zr609       O616   2.390       .  S
Zr610       O636   2.437       .  S
Zr610       O637   2.435       .  S
Zr610       O612   2.436       .  S
Zr610       O613   2.397       .  S
Zr610       O614   2.388       .  S
O611        H648   0.990       .  S
O612        H643   0.990       .  S
O612        H657   0.990       .  S
O614        H640   0.965       .  S
O615       Zr625   2.375       .  S
O616       Zr625   2.371       .  S
O616        H641   0.966       .  S
C617        C817   1.483       .  S
C618       C1117   1.491       .  S
C619       C1197   1.494       .  S
O620        H656   0.990       .  S
O621        C623   1.292       .  A
O622        C623   1.280       .  A
C623        C877   1.486       .  S
O624       Zr625   2.438       .  S
O624        H653   0.990       .  S
Zr625       O628   2.438       .  S
Zr625       O629   2.440       .  S
Zr625       O630   2.422       .  S
O626        C631   1.287       .  A
O627        H644   0.990       .  S
O627        H659   0.990       .  S
O628        H645   0.990       .  S
O629        H649   0.990       .  S
O629        H658   0.990       .  S
O630        C631   1.282       .  A
C631        C846   1.483       .  S
O632        H651   0.990       .  S
O632        H655   0.990       .  S
O633        H647   0.990       .  S
O633        H654   0.990       .  S
O634        C638   1.286       .  A
O635        C638   1.286       .  A
O636        H646   0.990       .  S
O637        H650   0.990       .  S
C638       C1477   1.488       .  S
Zr661       O662   2.439       .  S
Zr661       O663   2.428   1_545  S
Zr661       O664   2.414       .  S
Zr661       O667   2.441   1_545  S
Zr661       O669   2.382       .  S
Zr661       O670   2.376   1_545  S
Zr661       O671   2.406       .  S
Zr661       O672   2.397       .  S
O662        H718   0.990   1_545  S
O662        H726   0.990       .  S
O663        C683   1.284       .  A
O664        C685   1.283       .  A
O665       Zr675   2.414       .  S
O665        C684   1.282       .  A
O666       Zr674   2.463       .  S
O666        C685   1.290       .  A
O667        C684   1.287       .  A
O668       Zr676   2.433   1_565  S
O668        C683   1.283       .  A
O669       Zr674   2.394       .  S
O669       Zr676   2.377       .  S
O670       Zr675   2.388       .  S
O670       Zr676   2.369   1_565  S
O670        H705   0.966       .  S
O671       Zr674   2.409       .  S
O671       Zr691   2.385       .  S
O671        H708   0.965       .  S
O672       Zr675   2.390   1_545  S
O672       Zr691   2.403       .  S
Zr673       O698   2.443       .  S
Zr673       O692   2.436       .  S
Zr673       O700   2.450       .  S
Zr673       O688   2.420       .  S
Zr673       O679   2.402       .  S
Zr673       O680   2.411       .  S
Zr673       O681   2.381       .  S
Zr673       O682   2.374       .  S
Zr674       O693   2.435       .  S
Zr674       O686   2.435       .  S
Zr674       O687   2.458       .  S
Zr674       O680   2.405       .  S
Zr674       O681   2.392       .  S
Zr675       O677   2.434       .  S
Zr675       O699   2.437       .  S
Zr675       O701   2.420   1_565  S
Zr675       O679   2.385   1_565  S
Zr675       O682   2.389   1_565  S
Zr676       O702   2.435   1_545  S
Zr676       O703   2.434       .  S
Zr676       O678   2.437       .  S
Zr676       O679   2.404       .  S
Zr676       O680   2.388       .  S
O677        H714   0.990       .  S
O678        H709   0.990       .  S
O678        H723   0.989       .  S
O680        H706   0.965       .  S
O681       Zr691   2.374       .  S
O682       Zr691   2.373       .  S
O682        H707   0.965       .  S
C683        C946   1.477       .  S
C684        C797   1.487       .  S
C685       C1457   1.487       .  S
O686        H722   0.990       .  S
O687        C689   1.290       .  A
O688        C689   1.283       .  A
C689        C826   1.479       .  S
O690       Zr691   2.441       .  S
O690        H719   0.991       .  S
Zr691       O694   2.438       .  S
Zr691       O695   2.441       .  S
Zr691       O696   2.434       .  S
O692        C697   1.285       .  A
O693        H710   0.990       .  S
O693        H725   0.990       .  S
O694        H711   0.990       .  S
O695        H715   0.990       .  S
O695        H724   0.990       .  S
O696        C697   1.285       .  A
C697       C1166   1.485       .  S
O698        H717   0.990       .  S
O698        H721   0.990       .  S
O699        H713   0.990       .  S
O699        H720   0.990       .  S
O700        C704   1.287       .  A
O701        C704   1.282       .  A
O702        H712   0.990       .  S
O703        H716   0.990       .  S
C704       C1006   1.473       .  S
Zr727       O728   2.440       .  S
Zr727       O729   2.443   1_554  S
Zr727       O730   2.410       .  S
Zr727       O733   2.447   1_554  S
Zr727       O735   2.382       .  S
Zr727       O736   2.374   1_554  S
Zr727       O737   2.413       .  S
Zr727       O738   2.404       .  S
O728        H784   0.991       .  S
O728        H792   0.990       .  S
O729        C749   1.285       .  A
O730        C751   1.281       .  A
O731       Zr741   2.422       .  S
O731        C750   1.284       .  A
O732       Zr740   2.474       .  S
O732        C751   1.292       .  A
O733        C750   1.287       .  A
O734       Zr742   2.431   1_556  S
O734        C749   1.283       .  A
O735       Zr740   2.396       .  S
O735       Zr742   2.377       .  S
O736       Zr741   2.388       .  S
O736       Zr742   2.368   1_556  S
O736        H771   0.966       .  S
O737       Zr740   2.412       .  S
O737       Zr757   2.388       .  S
O737        H774   0.964       .  S
O738       Zr741   2.392   1_554  S
O738       Zr757   2.402       .  S
Zr739       O764   2.440       .  S
Zr739       O758   2.444       .  S
Zr739       O766   2.449       .  S
Zr739       O754   2.416       .  S
Zr739       O745   2.402       .  S
Zr739       O746   2.415       .  S
Zr739       O747   2.378       .  S
Zr739       O748   2.378       .  S
Zr740       O759   2.435       .  S
Zr740       O752   2.434       .  S
Zr740       O753   2.475       .  S
Zr740       O746   2.408       .  S
Zr740       O747   2.393       .  S
Zr741       O743   2.434       .  S
Zr741       O765   2.435       .  S
Zr741       O767   2.421       .  S
Zr741       O745   2.382   1_556  S
Zr741       O748   2.395   1_556  S
Zr742       O768   2.437   1_554  S
Zr742       O769   2.435       .  S
Zr742       O744   2.436       .  S
Zr742       O745   2.398       .  S
Zr742       O746   2.392       .  S
O743        H780   0.990       .  S
O744        H775   0.990       .  S
O744        H789   0.990       .  S
O746        H772   0.965       .  S
O747       Zr757   2.377       .  S
O748       Zr757   2.377       .  S
O748        H773   0.965       .  S
C749       C1186   1.484       .  S
C750        C986   1.485       .  S
C751       C1237   1.487       .  S
O752        H788   0.990       .  S
O753        C755   1.293       .  A
O754        C755   1.282       .  A
C755        C866   1.489       .  S
O756       Zr757   2.441       .  S
O756        H785   0.990       .  S
Zr757       O760   2.438       .  S
Zr757       O761   2.446       .  S
Zr757       O762   2.420       .  S
O758        C763   1.286       .  A
O759        H776   0.990       .  S
O759        H791   0.990       .  S
O760        H777   0.990       .  S
O761        H781   0.990       .  S
O761        H790   0.990       .  S
O762        C763   1.281       .  A
C763       C1086   1.490       .  S
O764        H783   0.990       .  S
O764        H787   0.990       .  S
O765        H779   0.990       .  S
O765        H786   0.990       .  S
O766        C770   1.287       .  A
O767        C770   1.283   1_556  A
O768        H778   0.990       .  S
O769        H782   0.990       .  S
C770        C806   1.477       .  S
C793        C794   1.402       .  A
C793        C798   1.392       .  A
C793        H803   1.084       .  S
C794        C799   1.483       .  S
C794        C795   1.406       .  A
C795        C796   1.403       .  A
C795        F800   1.357   1_556  S
C796        C797   1.409       .  A
C796        H801   1.083       .  S
C797        C798   1.412       .  A
C798        F802   1.358       .  S
C799        C804   1.405       .  A
C799        C808   1.407   1_556  A
C804        C805   1.394       .  A
C804        F809   1.358       .  S
C805        C806   1.404   1_556  A
C805        H810   1.084       .  S
C806        C807   1.406       .  A
C807        C808   1.404       .  A
C807        F811   1.357       .  S
C808        H812   1.083       .  S
C813        C814   1.402       .  A
C813        C818   1.398       .  A
C813        H823   1.083       .  S
C814        C819   1.487       .  S
C814        C815   1.410       .  A
C815        C816   1.400       .  A
C815        F820   1.357       .  S
C816        C817   1.404       .  A
C816        H821   1.083       .  S
C817        C818   1.411       .  A
C818        F822   1.358       .  S
C819        C824   1.406       .  A
C819        C828   1.407       .  A
C824        C825   1.397       .  A
C824        F829   1.357       .  S
C825        C826   1.405       .  A
C825        H830   1.084       .  S
C826        C827   1.407       .  A
C827        C828   1.402       .  A
C827        F831   1.358       .  S
C828        H832   1.083       .  S
C833        C834   1.410       .  A
C833        C838   1.406       .  A
C833        H843   1.083       .  S
C834        C839   1.493       .  S
C834        C835   1.407       .  A
C835        C836   1.392       .  A
C835        F840   1.358       .  S
C836        C837   1.407       .  A
C836        H841   1.083       .  S
C837        C838   1.409       .  A
C838        F842   1.357       .  S
C839        C844   1.410       .  A
C839        C848   1.406       .  A
C844        C845   1.401       .  A
C844        F849   1.357       .  S
C845        C846   1.406       .  A
C845        H850   1.083       .  S
C846        C847   1.405       .  A
C847        C848   1.397       .  A
C847        F851   1.355       .  S
C848        H852   1.083       .  S
C853        C854   1.409       .  A
C853        C858   1.403       .  A
C853        H863   1.083       .  S
C854        C859   1.496       .  S
C854        C855   1.410       .  A
C855        C856   1.401       .  A
C855        F860   1.358       .  S
C856        C857   1.406       .  A
C856        H861   1.084       .  S
C857        C858   1.407       .  A
C858        F862   1.357       .  S
C859        C864   1.411       .  A
C859        C868   1.405       .  A
C864        C865   1.406       .  A
C864        F869   1.357       .  S
C865        C866   1.405       .  A
C865        H870   1.083       .  S
C866        C867   1.411       .  A
C867        C868   1.398       .  A
C867        F871   1.357       .  S
C868        H872   1.083       .  S
C873        C874   1.399       .  A
C873        C878   1.389       .  A
C873        H883   1.084       .  S
C874        C879   1.483       .  S
C874        C875   1.409       .  A
C875        C876   1.406       .  A
C875        F880   1.357       .  S
C876        C877   1.408       .  A
C876        H881   1.083       .  S
C877        C878   1.412       .  A
C878        F882   1.357       .  S
C879        C884   1.407       .  A
C879        C888   1.405       .  A
C884        C885   1.395       .  A
C884        F889   1.358       .  S
C885        C886   1.403       .  A
C885        H890   1.083       .  S
C886        C887   1.408       .  A
C887        C888   1.402       .  A
C887        F891   1.357       .  S
C888        H892   1.083       .  S
C893        C894   1.408       .  A
C893        C898   1.402       .  A
C893        H903   1.083       .  S
C894        C899   1.491       .  S
C894        C895   1.410       .  A
C895        C896   1.397       .  A
C895        F900   1.357       .  S
C896        C897   1.402       .  A
C896        H901   1.084       .  S
C897        C898   1.407       .  A
C898        F902   1.357       .  S
C899        C904   1.412       .  A
C899        C908   1.403       .  A
C904        C905   1.405       .  A
C904        F909   1.357       .  S
C905        C906   1.404       .  A
C905        H910   1.083       .  S
C906        C907   1.411       .  A
C907        C908   1.392       .  A
C907        F911   1.358       .  S
C908        H912   1.083       .  S
C913        C914   1.400       .  A
C913        C918   1.393       .  A
C913        H923   1.084       .  S
C914        C919   1.477       .  S
C914        C915   1.405       .  A
C915        C916   1.406       .  A
C915        F920   1.357       .  S
C916        C917   1.408       .  A
C916        H921   1.083       .  S
C917        C918   1.410       .  A
C918        F922   1.358       .  S
C919        C924   1.402       .  A
C919        C928   1.403       .  A
C924        C925   1.392       .  A
C924        F929   1.358       .  S
C925        C926   1.407       .  A
C925        H930   1.083       .  S
C926        C927   1.412       .  A
C927        C928   1.405       .  A
C927        F931   1.357       .  S
C928        H932   1.083       .  S
C933        C934   1.403       .  A
C933        C938   1.391       .  A
C933        H943   1.083       .  S
C934        C939   1.487       .  S
C934        C935   1.410       .  A
C935        C936   1.402       .  A
C935        F940   1.357       .  S
C936        C937   1.406       .  A
C936        H941   1.083       .  S
C937        C938   1.410       .  A
C938        F942   1.358       .  S
C939        C944   1.409       .  A
C939        C948   1.407       .  A
C944        C945   1.395       .  A
C944        F949   1.358       .  S
C945        C946   1.403       .  A
C945        H950   1.084       .  S
C946        C947   1.407       .  A
C947        C948   1.401       .  A
C947        F951   1.357       .  S
C948        H952   1.083       .  S
C953        C954   1.407       .  A
C953        C958   1.399       .  A
C953        H963   1.083       .  S
C954        C959   1.491       .  S
C954        C955   1.410       .  A
C955        C956   1.399       .  A
C955        F960   1.358       .  S
C956        C957   1.405       .  A
C956        H961   1.083       .  S
C957        C958   1.408       .  A
C958        F962   1.357       .  S
C959        C964   1.410       .  A
C959        C968   1.403       .  A
C964        C965   1.403       .  A
C964        F969   1.357       .  S
C965        C966   1.406       .  A
C965        H970   1.083       .  S
C966        C967   1.412       .  A
C967        C968   1.395       .  A
C967        F971   1.358       .  S
C968        H972   1.083       .  S
C973        C974   1.406   1_455  A
C973        C978   1.410       .  A
C973        H983   1.083       .  S
C974        C979   1.484       .  S
C974        C975   1.402       .  A
C975        C976   1.395   1_655  A
C975        F980   1.358       .  S
C976        C977   1.407       .  A
C976        H981   1.084   1_455  S
C977        C978   1.411       .  A
C978        F982   1.357       .  S
C979        C984   1.405       .  A
C979        C988   1.404       .  A
C984        C985   1.397       .  A
C984        F989   1.358       .  S
C985        C986   1.406       .  A
C985        H990   1.084       .  S
C986        C987   1.410       .  A
C987        C988   1.405       .  A
C987        F991   1.357       .  S
C988        H992   1.083   1_655  S
C993        C994   1.402       .  A
C993        C998   1.396       .  A
C993       H1003   1.084       .  S
C994        C999   1.481       .  S
C994        C995   1.406       .  A
C995        C996   1.403       .  A
C995       F1000   1.357       .  S
C996        C997   1.406       .  A
C996       H1001   1.083       .  S
C997        C998   1.410       .  A
C998       F1002   1.358       .  S
C999       C1004   1.405       .  A
C999       C1008   1.406   1_565  A
C1004      C1005   1.398       .  A
C1004      F1009   1.357       .  S
C1005      C1006   1.403   1_565  A
C1005      H1010   1.084       .  S
C1006      C1007   1.405       .  A
C1007      C1008   1.402       .  A
C1007      F1011   1.357       .  S
C1008      H1012   1.083       .  S
C1013      C1014   1.404       .  A
C1013      C1018   1.396       .  A
C1013      H1023   1.083       .  S
C1014      C1019   1.488       .  S
C1014      C1015   1.409       .  A
C1015      C1016   1.404       .  A
C1015      F1020   1.357       .  S
C1016      C1017   1.406       .  A
C1016      H1021   1.083       .  S
C1017      C1018   1.408       .  A
C1018      F1022   1.357       .  S
C1019      C1024   1.408       .  A
C1019      C1028   1.409       .  A
C1024      C1025   1.396       .  A
C1024      F1029   1.357       .  S
C1025      C1026   1.402       .  A
C1025      H1030   1.084       .  S
C1026      C1027   1.403       .  A
C1027      C1028   1.403       .  A
C1027      F1031   1.358       .  S
C1028      H1032   1.083       .  S
C1033      C1034   1.401       .  A
C1033      C1038   1.391       .  A
C1033      H1043   1.083       .  S
C1034      C1039   1.484       .  S
C1034      C1035   1.408       .  A
C1035      C1036   1.404       .  A
C1035      F1040   1.357       .  S
C1036      C1037   1.408       .  A
C1036      H1041   1.083       .  S
C1037      C1038   1.413       .  A
C1038      F1042   1.358       .  S
C1039      C1044   1.407       .  A
C1039      C1048   1.406       .  A
C1044      C1045   1.394       .  A
C1044      F1049   1.357       .  S
C1045      C1046   1.402       .  A
C1045      H1050   1.083       .  S
C1046      C1047   1.408       .  A
C1047      C1048   1.402       .  A
C1047      F1051   1.358       .  S
C1048      H1052   1.083       .  S
C1053      C1054   1.407       .  A
C1053      C1058   1.397       .  A
C1053      H1063   1.083       .  S
C1054      C1059   1.487       .  S
C1054      C1055   1.409       .  A
C1055      C1056   1.398       .  A
C1055      F1060   1.357       .  S
C1056      C1057   1.404       .  A
C1056      H1061   1.083       .  S
C1057      C1058   1.405       .  A
C1058      F1062   1.358       .  S
C1059      C1064   1.406       .  A
C1059      C1068   1.408       .  A
C1064      C1065   1.393       .  A
C1064      F1069   1.358       .  S
C1065      C1066   1.407       .  A
C1065      H1070   1.083       .  S
C1066      C1067   1.409       .  A
C1067      C1068   1.403       .  A
C1067      F1071   1.357       .  S
C1068      H1072   1.083       .  S
C1073      C1074   1.407       .  A
C1073      C1078   1.407       .  A
C1073      H1083   1.083       .  S
C1074      C1079   1.480       .  S
C1074      C1075   1.401       .  A
C1075      C1076   1.390       .  A
C1075      F1080   1.358       .  S
C1076      C1077   1.408       .  A
C1076      H1081   1.083       .  S
C1077      C1078   1.408       .  A
C1078      F1082   1.357       .  S
C1079      C1084   1.403       .  A
C1079      C1088   1.403       .  A
C1084      C1085   1.400       .  A
C1084      F1089   1.358       .  S
C1085      C1086   1.412       .  A
C1085      H1090   1.083       .  S
C1086      C1087   1.410       .  A
C1087      C1088   1.396       .  A
C1087      F1091   1.356       .  S
C1088      H1092   1.084       .  S
C1093      C1094   1.401       .  A
C1093      C1098   1.390       .  A
C1093      H1103   1.083       .  S
C1094      C1099   1.487       .  S
C1094      C1095   1.410       .  A
C1095      C1096   1.407       .  A
C1095      F1100   1.357       .  S
C1096      C1097   1.407       .  A
C1096      H1101   1.083       .  S
C1097      C1098   1.410       .  A
C1098      F1102   1.357       .  S
C1099      C1104   1.407       .  A
C1099      C1108   1.408       .  A
C1104      C1105   1.393       .  A
C1104      F1109   1.357       .  S
C1105      C1106   1.402       .  A
C1105      H1110   1.082       .  S
C1106      C1107   1.408       .  A
C1107      C1108   1.405       .  A
C1107      F1111   1.358       .  S
C1108      H1112   1.083       .  S
C1113      C1114   1.403       .  A
C1113      C1118   1.405       .  A
C1113      H1123   1.083       .  S
C1114      C1119   1.480       .  S
C1114      C1115   1.403       .  A
C1115      C1116   1.392       .  A
C1115      F1120   1.358       .  S
C1116      C1117   1.408       .  A
C1116      H1121   1.083       .  S
C1117      C1118   1.414       .  A
C1118      F1122   1.357       .  S
C1119      C1124   1.407       .  A
C1119      C1128   1.402       .  A
C1124      C1125   1.405       .  A
C1124      F1129   1.357       .  S
C1125      C1126   1.406       .  A
C1125      H1130   1.083       .  S
C1126      C1127   1.406       .  A
C1127      C1128   1.394       .  A
C1127      F1131   1.358       .  S
C1128      H1132   1.084       .  S
C1133      C1134   1.403       .  A
C1133      C1138   1.395       .  A
C1133      H1143   1.084       .  S
C1134      C1139   1.487       .  S
C1134      C1135   1.409       .  A
C1135      C1136   1.406       .  A
C1135      F1140   1.357       .  S
C1136      C1137   1.406       .  A
C1136      H1141   1.083       .  S
C1137      C1138   1.407       .  A
C1138      F1142   1.358       .  S
C1139      C1144   1.405       .  A
C1139      C1148   1.406       .  A
C1144      C1145   1.392       .  A
C1144      F1149   1.358       .  S
C1145      C1146   1.408       .  A
C1145      H1150   1.083       .  S
C1146      C1147   1.413       .  A
C1147      C1148   1.407       .  A
C1147      F1151   1.357       .  S
C1148      H1152   1.083       .  S
C1153      C1154   1.404       .  A
C1153      C1158   1.397       .  A
C1153      H1163   1.083       .  S
C1154      C1159   1.489       .  S
C1154      C1155   1.410       .  A
C1155      C1156   1.402       .  A
C1155      F1160   1.357       .  S
C1156      C1157   1.403       .  A
C1156      H1161   1.083       .  S
C1157      C1158   1.408       .  A
C1158      F1162   1.357       .  S
C1159      C1164   1.406       .  A
C1159      C1168   1.407       .  A
C1164      C1165   1.401       .  A
C1164      F1169   1.357       .  S
C1165      C1166   1.407       .  A
C1165      H1170   1.083       .  S
C1166      C1167   1.407       .  A
C1167      C1168   1.400       .  A
C1167      F1171   1.358       .  S
C1168      H1172   1.083       .  S
C1173      C1174   1.410       .  A
C1173      C1178   1.404       .  A
C1173      H1183   1.083       .  S
C1174      C1179   1.498       .  S
C1174      C1175   1.409       .  A
C1175      C1176   1.398       .  A
C1175      F1180   1.357       .  S
C1176      C1177   1.407       .  A
C1176      H1181   1.083       .  S
C1177      C1178   1.409       .  A
C1178      F1182   1.357       .  S
C1179      C1184   1.411       .  A
C1179      C1188   1.409       .  A
C1184      C1185   1.401       .  A
C1184      F1189   1.357       .  S
C1185      C1186   1.403       .  A
C1185      H1190   1.083       .  S
C1186      C1187   1.407       .  A
C1187      C1188   1.403       .  A
C1187      F1191   1.358   1_556  S
C1188      H1192   1.083       .  S
C1193      C1194   1.399       .  A
C1193      C1198   1.389       .  A
C1193      H1203   1.083       .  S
C1194      C1199   1.488       .  S
C1194      C1195   1.410       .  A
C1195      C1196   1.408       .  A
C1195      F1200   1.357       .  S
C1196      C1197   1.410       .  A
C1196      H1201   1.083       .  S
C1197      C1198   1.415       .  A
C1198      F1202   1.356       .  S
C1199      C1204   1.408       .  A
C1199      C1208   1.405       .  A
C1204      C1205   1.395       .  A
C1204      F1209   1.358       .  S
C1205      C1206   1.404       .  A
C1205      H1210   1.082       .  S
C1206      C1207   1.413       .  A
C1207      C1208   1.403       .  A
C1207      F1211   1.357       .  S
C1208      H1212   1.083       .  S
C1213      C1214   1.408   1_554  A
C1213      C1218   1.406       .  A
C1213      H1223   1.083       .  S
C1214      C1219   1.492       .  S
C1214      C1215   1.406       .  A
C1215      C1216   1.397   1_556  A
C1215      F1220   1.358       .  S
C1216      C1217   1.408       .  A
C1216      H1221   1.084       .  S
C1217      C1218   1.409       .  A
C1218      F1222   1.357       .  S
C1219      C1224   1.411       .  A
C1219      C1228   1.405       .  A
C1224      C1225   1.399       .  A
C1224      F1229   1.357       .  S
C1225      C1226   1.403       .  A
C1225      H1230   1.083       .  S
C1226      C1227   1.409       .  A
C1227      C1228   1.402       .  A
C1227      F1231   1.358       .  S
C1228      H1232   1.083       .  S
C1233      C1234   1.409   1_655  A
C1233      C1238   1.409       .  A
C1233      H1243   1.083       .  S
C1234      C1239   1.486       .  S
C1234      C1235   1.402       .  A
C1235      C1236   1.393   1_455  A
C1235      F1240   1.358       .  S
C1236      C1237   1.408       .  A
C1236      H1241   1.083       .  S
C1237      C1238   1.407       .  A
C1238      F1242   1.357       .  S
C1239      C1244   1.404       .  A
C1239      C1248   1.404       .  A
C1244      C1245   1.404       .  A
C1244      F1249   1.358       .  S
C1245      C1246   1.412       .  A
C1245      H1250   1.083       .  S
C1246      C1247   1.412       .  A
C1247      C1248   1.398       .  A
C1247      F1251   1.357       .  S
C1248      H1252   1.083       .  S
C1253      C1254   1.405       .  A
C1253      C1258   1.396       .  A
C1253      H1263   1.083       .  S
C1254      C1259   1.492       .  S
C1254      C1255   1.410       .  A
C1255      C1256   1.408       .  A
C1255      F1260   1.357       .  S
C1256      C1257   1.406       .  A
C1256      H1261   1.083       .  S
C1257      C1258   1.405       .  A
C1258      F1262   1.358       .  S
C1259      C1264   1.408       .  A
C1259      C1268   1.402       .  A
C1264      C1265   1.409       .  A
C1264      F1269   1.357       .  S
C1265      C1266   1.411       .  A
C1265      H1270   1.083       .  S
C1266      C1267   1.414       .  A
C1267      C1268   1.394       .  A
C1267      F1271   1.358       .  S
C1268      H1272   1.084       .  S
C1273      C1274   1.403       .  A
C1273      C1278   1.406       .  A
C1273      H1283   1.083       .  S
C1274      C1279   1.480   1_556  S
C1274      C1275   1.402   1_556  A
C1275      C1276   1.397       .  A
C1275      F1280   1.358       .  S
C1276      C1277   1.408   1_554  A
C1276      H1281   1.083       .  S
C1277      C1278   1.413       .  A
C1278      F1282   1.357       .  S
C1279      C1284   1.406       .  A
C1279      C1288   1.402       .  A
C1284      C1285   1.404       .  A
C1284      F1289   1.357       .  S
C1285      C1286   1.404       .  A
C1285      H1290   1.083       .  S
C1286      C1287   1.407       .  A
C1287      C1288   1.399       .  A
C1287      F1291   1.358       .  S
C1288      H1292   1.083   1_554  S
C1293      C1294   1.404       .  A
C1293      C1298   1.399       .  A
C1293      H1303   1.083       .  S
C1294      C1299   1.477       .  S
C1294      C1295   1.406       .  A
C1295      C1296   1.395       .  A
C1295      F1300   1.358       .  S
C1296      C1297   1.403       .  A
C1296      H1301   1.084       .  S
C1297      C1298   1.404       .  A
C1298      F1302   1.357       .  S
C1299      C1304   1.406       .  A
C1299      C1308   1.404       .  A
C1304      C1305   1.398       .  A
C1304      F1309   1.357       .  S
C1305      C1306   1.402       .  A
C1305      H1310   1.083       .  S
C1306      C1307   1.405       .  A
C1307      C1308   1.396       .  A
C1307      F1311   1.358       .  S
C1308      H1312   1.083       .  S
C1313      C1314   1.402       .  A
C1313      C1318   1.393       .  A
C1313      H1323   1.084       .  S
C1314      C1319   1.489   1_455  S
C1314      C1315   1.407       .  A
C1315      C1316   1.408       .  A
C1315      F1320   1.357   1_455  S
C1316      C1317   1.411       .  A
C1316      H1321   1.083       .  S
C1317      C1318   1.413       .  A
C1318      F1322   1.358       .  S
C1319      C1324   1.410       .  A
C1319      C1328   1.404       .  A
C1324      C1325   1.408       .  A
C1324      F1329   1.357       .  S
C1325      C1326   1.406       .  A
C1325      H1330   1.083       .  S
C1326      C1327   1.404       .  A
C1327      C1328   1.395       .  A
C1327      F1331   1.358       .  S
C1328      H1332   1.084       .  S
C1333      C1334   1.404       .  A
C1333      C1338   1.398       .  A
C1333      H1343   1.083       .  S
C1334      C1339   1.493       .  S
C1334      C1335   1.407       .  A
C1335      C1336   1.405       .  A
C1335      F1340   1.357       .  S
C1336      C1337   1.410       .  A
C1336      H1341   1.083       .  S
C1337      C1338   1.413       .  A
C1338      F1342   1.357       .  S
C1339      C1344   1.404       .  A
C1339      C1348   1.409   1_655  A
C1344      C1345   1.395   1_655  A
C1344      F1349   1.358       .  S
C1345      C1346   1.411       .  A
C1345      H1350   1.082       .  S
C1346      C1347   1.411       .  A
C1347      C1348   1.409       .  A
C1347      F1351   1.356       .  S
C1348      H1352   1.083       .  S
C1353      C1354   1.402       .  A
C1353      C1358   1.397       .  A
C1353      H1363   1.083       .  S
C1354      C1359   1.498       .  S
C1354      C1355   1.411       .  A
C1355      C1356   1.410       .  A
C1355      F1360   1.357       .  S
C1356      C1357   1.411       .  A
C1356      H1361   1.083       .  S
C1357      C1358   1.414       .  A
C1358      F1362   1.356       .  S
C1359      C1364   1.409       .  A
C1359      C1368   1.407       .  A
C1364      C1365   1.403       .  A
C1364      F1369   1.358       .  S
C1365      C1366   1.408       .  A
C1365      H1370   1.083       .  S
C1366      C1367   1.411       .  A
C1367      C1368   1.407       .  A
C1367      F1371   1.357       .  S
C1368      H1372   1.083       .  S
C1373      C1374   1.404       .  A
C1373      C1378   1.398   1_545  A
C1373      H1383   1.083       .  S
C1374      C1379   1.491       .  S
C1374      C1375   1.410   1_545  A
C1375      C1376   1.403       .  A
C1375      F1380   1.357   1_565  S
C1376      C1377   1.404       .  A
C1376      H1381   1.083       .  S
C1377      C1378   1.409       .  A
C1378      F1382   1.357       .  S
C1379      C1384   1.407       .  A
C1379      C1388   1.407       .  A
C1384      C1385   1.400       .  A
C1384      F1389   1.357       .  S
C1385      C1386   1.408       .  A
C1385      H1390   1.083       .  S
C1386      C1387   1.408       .  A
C1387      C1388   1.401       .  A
C1387      F1391   1.357       .  S
C1388      H1392   1.083       .  S
C1393      C1394   1.403       .  A
C1393      C1398   1.396   1_565  A
C1393      H1403   1.083       .  S
C1394      C1399   1.496       .  S
C1394      C1395   1.412   1_565  A
C1395      C1396   1.408       .  A
C1395      F1400   1.357   1_545  S
C1396      C1397   1.406       .  A
C1396      H1401   1.083       .  S
C1397      C1398   1.412       .  A
C1398      F1402   1.358       .  S
C1399      C1404   1.411       .  A
C1399      C1408   1.408       .  A
C1404      C1405   1.400       .  A
C1404      F1409   1.357       .  S
C1405      C1406   1.404       .  A
C1405      H1410   1.083       .  S
C1406      C1407   1.409       .  A
C1407      C1408   1.404       .  A
C1407      F1411   1.357       .  S
C1408      H1412   1.083       .  S
C1413      C1414   1.408       .  A
C1413      C1418   1.400       .  A
C1413      H1423   1.083       .  S
C1414      C1419   1.498       .  S
C1414      C1415   1.411       .  A
C1415      C1416   1.402       .  A
C1415      F1420   1.357       .  S
C1416      C1417   1.405       .  A
C1416      H1421   1.083       .  S
C1417      C1418   1.408       .  A
C1418      F1422   1.357       .  S
C1419      C1424   1.408       .  A
C1419      C1428   1.412       .  A
C1424      C1425   1.395       .  A
C1424      F1429   1.358       .  S
C1425      C1426   1.409       .  A
C1425      H1430   1.083       .  S
C1426      C1427   1.408       .  A
C1427      C1428   1.408       .  A
C1427      F1431   1.357       .  S
C1428      H1432   1.082       .  S
C1433      C1434   1.406       .  A
C1433      C1438   1.403       .  A
C1433      H1443   1.083       .  S
C1434      C1439   1.487       .  S
C1434      C1435   1.409       .  A
C1435      C1436   1.395       .  A
C1435      F1440   1.358       .  S
C1436      C1437   1.402       .  A
C1436      H1441   1.084       .  S
C1437      C1438   1.408       .  A
C1438      F1442   1.358       .  S
C1439      C1444   1.410       .  A
C1439      C1448   1.398       .  A
C1444      C1445   1.410       .  A
C1444      F1449   1.357       .  S
C1445      C1446   1.409       .  A
C1445      H1450   1.083       .  S
C1446      C1447   1.415       .  A
C1447      C1448   1.389       .  A
C1447      F1451   1.357       .  S
C1448      H1452   1.084       .  S
C1453      C1454   1.411   1_556  A
C1453      C1458   1.406       .  A
C1453      H1463   1.082       .  S
C1454      C1459   1.491       .  S
C1454      C1455   1.405       .  A
C1455      C1456   1.390   1_554  A
C1455      F1460   1.358       .  S
C1456      C1457   1.408       .  A
C1456      H1461   1.083       .  S
C1457      C1458   1.408       .  A
C1458      F1462   1.357       .  S
C1459      C1464   1.406       .  A
C1459      C1468   1.408       .  A
C1464      C1465   1.398       .  A
C1464      F1469   1.357       .  S
C1465      C1466   1.409       .  A
C1465      H1470   1.083       .  S
C1466      C1467   1.409       .  A
C1467      C1468   1.398       .  A
C1467      F1471   1.357       .  S
C1468      H1472   1.083       .  S
C1473      C1474   1.404       .  A
C1473      C1478   1.408       .  A
C1473      H1483   1.083       .  S
C1474      C1479   1.477       .  S
C1474      C1475   1.401       .  A
C1475      C1476   1.391       .  A
C1475      F1480   1.358       .  S
C1476      C1477   1.406       .  A
C1476      H1481   1.083       .  S
C1477      C1478   1.414       .  A
C1478      F1482   1.357       .  S
C1479      C1484   1.405       .  A
C1479      C1488   1.401       .  A
C1484      C1485   1.404       .  A
C1484      F1489   1.357       .  S
C1485      C1486   1.407       .  A
C1485      H1490   1.083       .  S
C1486      C1487   1.409       .  A
C1487      C1488   1.394       .  A
C1487      F1491   1.358       .  S
C1488      H1492   1.084       .  S
C1493      C1494   1.405       .  A
C1493      C1498   1.408       .  A
C1493      H1503   1.083   1_545  S
C1494      C1499   1.484       .  S
C1494      C1495   1.404       .  A
C1495      C1496   1.394       .  A
C1495      F1500   1.358       .  S
C1496      C1497   1.408       .  A
C1496      H1501   1.083       .  S
C1497      C1498   1.412       .  A
C1498      F1502   1.357       .  S
C1499      C1504   1.404       .  A
C1499      C1508   1.406   1_545  A
C1504      C1505   1.394   1_545  A
C1504      F1509   1.358       .  S
C1505      C1506   1.405       .  A
C1505      H1510   1.084       .  S
C1506      C1507   1.410       .  A
C1507      C1508   1.408       .  A
C1507      F1511   1.357       .  S
C1508      H1512   1.083       .  S
