geometry optimzed in LAMMPS
_audit_creation_date              2020-11-30 
_audit_creation_method            'lammps2cif' 
_symmetry_space_group_name_H-M    'P1' 
_symmetry_Int_Tables_number       1 
_symmetry_cell_setting            triclinic 
loop_ 
_symmetry_equiv_pos_as_xyz 
  x,y,z 
_cell_length_a                    95.8000718 
_cell_length_b                    94.99879254743523 
_cell_length_c                    94.77906773213114 
_cell_angle_alpha                 90.22705576450461 
_cell_angle_beta                  89.67848075385285 
_cell_angle_gamma                 89.62876190562483 
loop_ 
_atom_site_label 
_atom_site_type_symbol 
_atom_site_fract_x 
_atom_site_fract_y 
_atom_site_fract_z 
_atom_site_charge 
N1          N  0.66511386  0.84798540  0.83974932    -0.26700
N2          N  0.65959533  0.83572814  0.83628585    -0.34500
C3          C  0.65607341  0.83592844  0.82258098     0.01700
C4          C  0.65972300  0.84883324  0.81704480     0.07700
C5          C  0.66548265  0.85622163  0.82820496    -0.05400
H6          H  0.65175381  0.82707672  0.81691374     0.08300
H7          H  0.66965983  0.86676721  0.82795404     0.09500
Cu8        Cu  0.65868770  0.81851819  0.84963644     0.44200
Cu9        Cu  0.67172860  0.85285250  0.86011367     0.42000
Cu10       Cu  0.67253514  0.82357102  0.88458107     0.43900
N11         N  0.66233421  0.80208945  0.86350350    -0.34100
N12         N  0.66782551  0.80388321  0.87614395    -0.28300
C13         C  0.67009686  0.79118141  0.88197303    -0.04400
C14         C  0.66575246  0.78090151  0.87258068     0.07800
C15         C  0.66084993  0.78822129  0.86100299     0.01600
H16         H  0.67474434  0.78956967  0.89221879     0.09200
H17         H  0.65701096  0.78379692  0.85124474     0.08300
N18         N  0.67669786  0.84431214  0.89039154    -0.35500
N19         N  0.67638511  0.85499575  0.88148779    -0.27700
C20         C  0.67931924  0.86693634  0.88856452    -0.02900
C21         C  0.68167936  0.86364255  0.90258861     0.05700
C22         C  0.67991250  0.84917761  0.90333264     0.03800
H23         H  0.67969815  0.87727160  0.88382853     0.08900
H24         H  0.68075308  0.84264881  0.91261466     0.07700
N25         N  0.70181688  0.87348023  0.65106863    -0.26700
N26         N  0.70451103  0.87797685  0.66397108    -0.34500
C27         C  0.71830042  0.87981444  0.66538597     0.01700
C28         C  0.72476985  0.87622991  0.65281134     0.07700
C29         C  0.71399468  0.87223540  0.64391116    -0.05400
H30         H  0.72328059  0.88306011  0.67507422     0.08300
H31         H  0.71493016  0.86862519  0.63310842     0.09500
Cu32       Cu  0.68982257  0.87967803  0.67984069     0.44200
Cu33       Cu  0.68141825  0.86936219  0.64453042     0.42000
Cu34       Cu  0.65518115  0.86817844  0.67348974     0.43900
N35         N  0.67578005  0.87582515  0.69586670    -0.34100
N36         N  0.66310239  0.87086729  0.69382338    -0.28300
C37         C  0.65725822  0.86812626  0.70650805    -0.04400
C38         C  0.66677964  0.87164351  0.71694612     0.07800
C39         C  0.67834907  0.87649605  0.70974840     0.01600
H40         H  0.64693929  0.86380861  0.70800114     0.09200
H41         H  0.68816185  0.87980699  0.71423340     0.08300
N42         N  0.65050281  0.86771537  0.65194980    -0.35500
N43         N  0.65983553  0.86787854  0.64157967    -0.27700
C44         C  0.65307288  0.86768504  0.62913277    -0.02900
C45         C  0.63882703  0.86752576  0.63174489     0.05700
C46         C  0.63762656  0.86754533  0.64633470     0.03800
H47         H  0.65816480  0.86792636  0.61892284     0.08900
H48         H  0.62808352  0.86744669  0.65247849     0.07700
N49         N  0.87947294  0.62344588  0.84751810    -0.26700
N50         N  0.87593194  0.62053231  0.83436316    -0.34500
C51         C  0.86208055  0.61840589  0.83381029     0.01700
C52         C  0.85652473  0.62030563  0.84718552     0.07700
C53         C  0.86784583  0.62354922  0.85563934    -0.05400
H54         H  0.85638372  0.61616546  0.82424379     0.08300
H55         H  0.86766012  0.62571022  0.86684977     0.09500
Cu56       Cu  0.88971606  0.62123641  0.81735138     0.44200
Cu57       Cu  0.90016968  0.62679809  0.85345813     0.42000
Cu58       Cu  0.92515845  0.63155399  0.82430890     0.43900
N59         N  0.90397237  0.62604460  0.80147670    -0.34100
N60         N  0.91680531  0.63046509  0.80389157    -0.28300
C61         C  0.92289217  0.63363252  0.79141673    -0.04400
C62         C  0.91347918  0.63091382  0.78065331     0.07800
C63         C  0.90162046  0.62610813  0.78748999     0.01600
H64         H  0.93342107  0.63752615  0.79025357     0.09200
H65         H  0.89183372  0.62320137  0.78268614     0.08300
N66         N  0.93074805  0.63048952  0.84568997    -0.35500
N67         N  0.92172441  0.62868626  0.85615426    -0.27700
C68         C  0.92874980  0.62802380  0.86842557    -0.02900
C69         C  0.94288598  0.62951399  0.86565583     0.05700
C70         C  0.94372884  0.63106448  0.85110165     0.03800
H71         H  0.92389883  0.62651250  0.87863313     0.08900
H72         H  0.95310165  0.63237414  0.84484900     0.07700
N73         N  0.68907742  0.65823594  0.87695089    -0.26700
N74         N  0.70189361  0.66227318  0.87998642    -0.34500
C75         C  0.70183534  0.67613685  0.88281074     0.01700
C76         C  0.68837149  0.68118123  0.88130557     0.07700
C77         C  0.68052187  0.66956066  0.87752128    -0.05400
H78         H  0.71104815  0.68220631  0.88520923     0.08300
H79         H  0.66945495  0.66935142  0.87534079     0.09500
Cu80       Cu  0.71918566  0.64918514  0.87866394     0.44200
Cu81       Cu  0.68429972  0.63733584  0.87238958     0.42000
Cu82       Cu  0.71423679  0.61302326  0.86826697     0.43900
N83         N  0.73557478  0.63561868  0.87407443    -0.34100
N84         N  0.73400867  0.62247446  0.86974897    -0.28300
C85         C  0.74677122  0.61699829  0.86686727    -0.04400
C86         C  0.75676740  0.62718598  0.86966597     0.07800
C87         C  0.74922452  0.63880246  0.87422670     0.01600
H88         H  0.74864275  0.60638885  0.86310353     0.09200
H89         H  0.75332585  0.64898302  0.87714802     0.08300
N90         N  0.69315008  0.60681517  0.86818251    -0.35500
N91         N  0.68246209  0.61564386  0.86953156    -0.27700
C92         C  0.67046549  0.60832295  0.86904696    -0.02900
C93         C  0.67362674  0.59416909  0.86734444     0.05700
C94         C  0.68813741  0.59363264  0.86685091     0.03800
H95         H  0.66017229  0.61299083  0.86993805     0.08900
H96         H  0.69461006  0.58434630  0.86556120     0.07700
N97         N  0.89183671  0.83466485  0.62547958    -0.26700
N98         N  0.87903097  0.83136914  0.62157369    -0.34500
C99         C  0.87844036  0.81750251  0.61884186     0.01700
C100        C  0.89142862  0.81162537  0.62131032     0.07700
C101        C  0.89969476  0.82281485  0.62554405    -0.05400
H102        H  0.86898880  0.81197035  0.61612886     0.08300
H103        H  0.91051155  0.82232660  0.62873321     0.09500
Cu104      Cu  0.86210041  0.84500644  0.62255661     0.44200
Cu105      Cu  0.89743817  0.85521620  0.63101687     0.42000
Cu106      Cu  0.86742607  0.87801602  0.63952209     0.43900
N107        N  0.84579811  0.85807848  0.62878625    -0.34100
N108        N  0.84767078  0.86989325  0.63590309    -0.28300
C109        C  0.83510933  0.87542811  0.63931422    -0.04400
C110        C  0.82486586  0.86671361  0.63391447     0.07800
C111        C  0.83204179  0.85584724  0.62729608     0.01600
H112        H  0.83356280  0.88517449  0.64506883     0.09200
H113        H  0.82759980  0.84679052  0.62206372     0.08300
N114        N  0.88795197  0.88490913  0.63826591    -0.35500
N115        N  0.89884669  0.87684166  0.63507212    -0.27700
C116        C  0.91027277  0.88502166  0.63410578    -0.02900
C117        C  0.90635704  0.89887998  0.63676264     0.05700
C118        C  0.89214466  0.89834359  0.63937417     0.03800
H119        H  0.92057967  0.88119561  0.63129037     0.08900
H120        H  0.88522972  0.90714481  0.64155765     0.07700
N121        N  0.90907742  0.64198196  0.65482458    -0.26700
N122        N  0.91308259  0.65490719  0.65802252    -0.34500
C123        C  0.91630631  0.65554100  0.67182436     0.01700
C124        C  0.91402568  0.64246360  0.67775284     0.07700
C125        C  0.90941491  0.63413191  0.66665751    -0.05400
H126        H  0.91911372  0.66509000  0.67734578     0.08300
H127        H  0.90611565  0.62328190  0.66724891     0.09500
Cu128      Cu  0.91146196  0.67185227  0.64432050     0.44200
Cu129      Cu  0.90247815  0.63604024  0.63454467     0.42000
Cu130      Cu  0.89404398  0.66561698  0.61142804     0.43900
N131        N  0.90530890  0.68792918  0.63087265    -0.34100
N132        N  0.89836276  0.68576355  0.61905760    -0.28300
C133        C  0.89504700  0.69832595  0.61336200    -0.04400
C134        C  0.90024695  0.70889328  0.62197184     0.07800
C135        C  0.90669709  0.70186700  0.63295574     0.01600
H136        H  0.88926406  0.69966383  0.60368086     0.09200
H137        H  0.91168436  0.70652343  0.64204266     0.08300
N138        N  0.89301541  0.64452188  0.60525861    -0.35500
N139        N  0.89635943  0.63373016  0.61339464    -0.27700
C140        C  0.89552968  0.62177065  0.60567802    -0.02900
C141        C  0.89141782  0.62519929  0.59206613     0.05700
C142        C  0.88989374  0.63971372  0.59228569     0.03800
H143        H  0.89794638  0.61137835  0.60963549     0.08900
H144        H  0.88713379  0.64639191  0.58349822     0.07700
N145        N  0.89409637  0.15382453  0.62639750    -0.26700
N146        N  0.88167308  0.15770582  0.62170333    -0.34500
C147        C  0.88149288  0.17168030  0.61963125     0.01700
C148        C  0.89429647  0.17704767  0.62338875     0.07700
C149        C  0.90207436  0.16544922  0.62770577    -0.05400
H150        H  0.87247492  0.17758961  0.61610775     0.08300
H151        H  0.91274442  0.16545241  0.63136950     0.09500
Cu152      Cu  0.86463077  0.14454567  0.61979182     0.44200
Cu153      Cu  0.89921593  0.13262740  0.63035713     0.42000
Cu154      Cu  0.86836572  0.10969704  0.63241142     0.43900
N155        N  0.84772592  0.13133446  0.62252633    -0.34100
N156        N  0.84892045  0.11863304  0.62802299    -0.28300
C157        C  0.83605155  0.11321232  0.62975950    -0.04400
C158        C  0.82633173  0.12295482  0.62494970     0.07800
C159        C  0.83414562  0.13428384  0.62041216     0.01600
H160        H  0.83393111  0.10296463  0.63419026     0.09200
H161        H  0.83022498  0.14418659  0.61640399     0.08300
N162        N  0.88898963  0.10253280  0.63329744    -0.35500
N163        N  0.90019914  0.11057692  0.63237389    -0.27700
C164        C  0.91166139  0.10219429  0.63232550    -0.02900
C165        C  0.90745397  0.08824371  0.63325422     0.05700
C166        C  0.89302242  0.08895998  0.63388768     0.03800
H167        H  0.92225606  0.10597140  0.63140318     0.08900
H168        H  0.88588589  0.08019373  0.63438168     0.07700
N169        N  0.91065095  0.34534833  0.66225107    -0.26700
N170        N  0.91569341  0.33306273  0.66639009    -0.34500
C171        C  0.91715615  0.33315774  0.68044289     0.01700
C172        C  0.91276703  0.34608383  0.68556621     0.07700
C173        C  0.90859139  0.35357607  0.67375137    -0.05400
H174        H  0.92096953  0.32432362  0.68650227     0.08300
H175        H  0.90471282  0.36429098  0.67349519     0.09500
Cu176      Cu  0.91964087  0.31606976  0.65329846     0.44200
Cu177      Cu  0.90795415  0.35006697  0.64090028     0.42000
Cu178      Cu  0.91369810  0.31991567  0.61664152     0.43900
N179        N  0.91871617  0.29901958  0.63978505    -0.34100
N180        N  0.91593071  0.30023324  0.62621337    -0.28300
C181        C  0.91410676  0.28724412  0.62074366    -0.04400
C182        C  0.91590728  0.27743486  0.63143779     0.07800
C183        C  0.91889217  0.28533128  0.64331822     0.01600
H184        H  0.91132122  0.28513326  0.60990297     0.09200
H185        H  0.92032433  0.28147390  0.65393890     0.08300
N186        N  0.91089361  0.34080361  0.61024613    -0.35500
N187        N  0.90858942  0.35158189  0.61887903    -0.27700
C188        C  0.90706541  0.36337678  0.61114731    -0.02900
C189        C  0.90845773  0.35991262  0.59697926     0.05700
C190        C  0.91090459  0.34550228  0.59685684     0.03800
H191        H  0.90508285  0.37372827  0.61554001     0.08900
H192        H  0.91251101  0.33884573  0.58770644     0.07700
N193        N  0.88200636  0.35777414  0.85561971    -0.26700
N194        N  0.87861489  0.36269131  0.84305520    -0.34500
C195        C  0.86502716  0.36620515  0.84304146     0.01700
C196        C  0.85947707  0.36331333  0.85619506     0.07700
C197        C  0.87051922  0.35790116  0.86391609    -0.05400
H198        H  0.85952926  0.37020558  0.83394739     0.08300
H199        H  0.87025124  0.35439989  0.87476183     0.09500
Cu200      Cu  0.89198359  0.36349816  0.82588562     0.44200
Cu201      Cu  0.90230627  0.35166168  0.86070393     0.42000
Cu202      Cu  0.92625542  0.34948114  0.83047618     0.43900
N203        N  0.90564424  0.36027453  0.80921521    -0.34100
N204        N  0.91810741  0.35447580  0.81076541    -0.28300
C205        C  0.92394036  0.35261863  0.79793170    -0.04400
C206        C  0.91472043  0.35758888  0.78784342     0.07800
C207        C  0.90323634  0.36238593  0.79541236     0.01600
H208        H  0.93406718  0.34783031  0.79607704     0.09200
H209        H  0.89359264  0.36654857  0.79120146     0.08300
N210        N  0.93240967  0.34783655  0.85147322    -0.35500
N211        N  0.92380969  0.34859316  0.86243078    -0.27700
C212        C  0.93136938  0.34836287  0.87438252    -0.02900
C213        C  0.94539891  0.34751188  0.87080159     0.05700
C214        C  0.94562144  0.34714118  0.85617647     0.03800
H215        H  0.92699335  0.34935282  0.88488589     0.08900
H216        H  0.95472264  0.34689472  0.84938531     0.07700
N217        N  0.67507403  0.14231211  0.83567350    -0.26700
N218        N  0.67098179  0.15497768  0.83160603    -0.34500
C219        C  0.66876772  0.15485731  0.81763912     0.01700
C220        C  0.67170085  0.14152456  0.81249304     0.07700
C221        C  0.67574003  0.13381137  0.82421907    -0.05400
H222        H  0.66575897  0.16400962  0.81159716     0.08300
H223        H  0.67895347  0.12287952  0.82440470     0.09500
Cu224      Cu  0.67003166  0.17258787  0.84450981     0.44200
Cu225      Cu  0.67955745  0.13769634  0.85677149     0.42000
Cu226      Cu  0.68103256  0.16894633  0.88001577     0.43900
N227        N  0.67332157  0.18973249  0.85758468    -0.34100
N228        N  0.67789636  0.18853311  0.87064578    -0.28300
C229        C  0.68029746  0.20151401  0.87587364    -0.04400
C230        C  0.67700150  0.21132763  0.86557178     0.07800
C231        C  0.67256575  0.20343359  0.85416322     0.01600
H232        H  0.68430988  0.20362188  0.88630957     0.09200
H233        H  0.66951985  0.20732380  0.84391093     0.08300
N234        N  0.68324902  0.14819359  0.88683590    -0.35500
N235        N  0.68276894  0.13690518  0.87860920    -0.27700
C236        C  0.68440153  0.12533008  0.88666924    -0.02900
C237        C  0.68597910  0.12952820  0.90061194     0.05700
C238        C  0.68518475  0.14408431  0.90024894     0.03800
H239        H  0.68430793  0.11465049  0.88266865     0.08900
H240        H  0.68585564  0.15123049  0.90913495     0.07700
N241        N  0.69309163  0.33572528  0.86866675    -0.26700
N242        N  0.70557666  0.33298327  0.87394545    -0.34500
C243        C  0.70677403  0.31913367  0.87648799     0.01700
C244        C  0.69459034  0.31264328  0.87244719     0.07700
C245        C  0.68611251  0.32345743  0.86747443    -0.05400
H246        H  0.71612391  0.31407274  0.88040229     0.08300
H247        H  0.67567349  0.32247249  0.86331369     0.09500
Cu248      Cu  0.72162584  0.34730123  0.87554102     0.44200
Cu249      Cu  0.68649819  0.35627693  0.86345726     0.42000
Cu250      Cu  0.71615700  0.37994723  0.85877773     0.43900
N251        N  0.73777555  0.36095015  0.87125997    -0.34100
N252        N  0.73593016  0.37277977  0.86423630    -0.28300
C253        C  0.74846481  0.37865285  0.86178777    -0.04400
C254        C  0.75865896  0.37010927  0.86767620     0.07800
C255        C  0.75147222  0.35898438  0.87359365     0.01600
H256        H  0.75004120  0.38832626  0.85602784     0.09200
H257        H  0.75588356  0.34980362  0.87865099     0.08300
N258        N  0.69537936  0.38632699  0.85795572    -0.35500
N259        N  0.68444077  0.37811088  0.85995173    -0.27700
C260        C  0.67277647  0.38624924  0.85992175    -0.02900
C261        C  0.67663530  0.40019971  0.85779993     0.05700
C262        C  0.69102611  0.39970942  0.85657314     0.03800
H263        H  0.66231445  0.38234616  0.86157555     0.08900
H264        H  0.69796087  0.40854677  0.85517582     0.07700
N265        N  0.70282804  0.12522482  0.64198201    -0.26700
N266        N  0.70577394  0.12060196  0.65479409    -0.34500
C267        C  0.71943232  0.11754702  0.65556673     0.01700
C268        C  0.72563863  0.12045790  0.64274328     0.07700
C269        C  0.71479844  0.12535846  0.63431768    -0.05400
H270        H  0.72456781  0.11393247  0.66503603     0.08300
H271        H  0.71556460  0.12879963  0.62348030     0.09500
Cu272      Cu  0.69221146  0.12010191  0.67186106     0.44200
Cu273      Cu  0.68245471  0.13120241  0.63600848     0.42000
Cu274      Cu  0.66002783  0.13679914  0.66717893     0.43900
N275        N  0.67925325  0.12481921  0.68879139    -0.34100
N276        N  0.66742956  0.13178112  0.68707959    -0.28300
C277        C  0.66183773  0.13467118  0.69982665    -0.04400
C278        C  0.67055358  0.12916196  0.71008221     0.07800
C279        C  0.68150009  0.12295873  0.70267197     0.01600
H280        H  0.65223223  0.14050931  0.70150123     0.09200
H281        H  0.69071510  0.11802230  0.70703204     0.08300
N282        N  0.65327985  0.13836394  0.64647017    -0.35500
N283        N  0.66098153  0.13616086  0.63501903    -0.27700
C284        C  0.65263476  0.13732712  0.62359014    -0.02900
C285        C  0.63911351  0.14042901  0.62816144     0.05700
C286        C  0.64004536  0.14099044  0.64269474     0.03800
H287        H  0.65610983  0.13587910  0.61280133     0.08900
H288        H  0.63161313  0.14290691  0.65011269     0.07700
N289        N  0.15800844  0.63204582  0.80244916    -0.26700
N290        N  0.17139571  0.63471479  0.80050600    -0.34500
C291        C  0.17350170  0.63856766  0.78704013     0.01700
C292        C  0.16088699  0.63804520  0.78004766     0.07700
C293        C  0.15125082  0.63381820  0.79011783    -0.05400
H294        H  0.18352715  0.64142723  0.78262356     0.08300
H295        H  0.14012123  0.63263431  0.78872051     0.09500
Cu296      Cu  0.18618189  0.63251497  0.81625657     0.44200
Cu297      Cu  0.15001415  0.62755556  0.82238383     0.42000
Cu298      Cu  0.17444018  0.62723772  0.85238607     0.43900
N299        N  0.19953485  0.62898009  0.83305096    -0.34100
N300        N  0.19541912  0.62765945  0.84632586    -0.28300
C301        C  0.20677733  0.62606938  0.85451940    -0.04400
C302        C  0.21852551  0.62609707  0.84592485     0.07800
C303        C  0.21352823  0.62793858  0.83240241     0.01600
H304        H  0.20649060  0.62474448  0.86584726     0.09200
H305        H  0.21963154  0.62877443  0.82280791     0.08300
N306        N  0.15276053  0.62609889  0.85441897    -0.35500
N307        N  0.14416852  0.62609686  0.84352341    -0.27700
C308        C  0.13095922  0.62596140  0.84831193    -0.02900
C309        C  0.13110180  0.62586200  0.86290583     0.05700
C310        C  0.14513414  0.62588542  0.86644174     0.03800
H311        H  0.12187261  0.62631552  0.84158784     0.08900
H312        H  0.14948523  0.62620306  0.87694457     0.07700
N313        N  0.38556244  0.65695334  0.87212728    -0.26700
N314        N  0.37255387  0.66071142  0.87511968    -0.34500
C315        C  0.37226537  0.67439759  0.87874880     0.01700
C316        C  0.38567440  0.67960355  0.87782260     0.07700
C317        C  0.39386286  0.66826542  0.87356946    -0.05400
H318        H  0.36285853  0.68028317  0.88123288     0.08300
H319        H  0.40498304  0.66825948  0.87152769     0.09500
Cu320      Cu  0.35534098  0.64779724  0.87257529     0.44200
Cu321      Cu  0.39127528  0.63663560  0.86600197     0.42000
Cu322      Cu  0.36216637  0.61314265  0.85905306     0.43900
N323        N  0.33961473  0.63409465  0.86662329    -0.34100
N324        N  0.34214427  0.62154686  0.86106383    -0.28300
C325        C  0.32995568  0.61566537  0.85731141    -0.04400
C326        C  0.31923726  0.62487300  0.86088529     0.07800
C327        C  0.32574247  0.63644409  0.86678043     0.01600
H328        H  0.32897092  0.60541889  0.85240544     0.09200
H329        H  0.32079937  0.64605125  0.87048215     0.08300
N330        N  0.38303073  0.60690578  0.85846820    -0.35500
N331        N  0.39363797  0.61541005  0.86089535    -0.27700
C332        C  0.40562931  0.60796992  0.85992707    -0.02900
C333        C  0.40242698  0.59410600  0.85676117     0.05700
C334        C  0.38799660  0.59385990  0.85592063     0.03800
H335        H  0.41589580  0.61232589  0.86161432     0.08900
H336        H  0.38152792  0.58481574  0.85377526     0.07700
N337        N  0.40775697  0.80194795  0.87840286    -0.26700
N338        N  0.41427480  0.80012856  0.86621019    -0.34500
C339        C  0.41590705  0.78627929  0.86372402     0.01700
C340        C  0.41001096  0.77898083  0.87482882     0.07700
C341        C  0.40492879  0.78925598  0.88397010    -0.05400
H342        H  0.42045872  0.78186158  0.85420254     0.08300
H343        H  0.39943096  0.78764952  0.89382885     0.09500
Cu344      Cu  0.41881222  0.81651327  0.85268073     0.44200
Cu345      Cu  0.40305867  0.82180874  0.88638661     0.42000
Cu346      Cu  0.40791735  0.85180894  0.86266735     0.43900
N347        N  0.41812254  0.83324250  0.83880586    -0.34100
N348        N  0.41342551  0.84596398  0.84210370    -0.28300
C349        C  0.41265158  0.85366855  0.83021339    -0.04400
C350        C  0.41723196  0.84540792  0.81898410     0.07800
C351        C  0.42064303  0.83256302  0.82486327     0.01600
H352        H  0.40881099  0.86439111  0.82974348     0.09200
H353        H  0.42397303  0.82313487  0.81931745     0.08300
N354        N  0.40382256  0.85369817  0.88425679    -0.35500
N355        N  0.40182556  0.84276191  0.89261959    -0.27700
C356        C  0.39989175  0.84736521  0.90590119    -0.02900
C357        C  0.40078098  0.86189086  0.90603796     0.05700
C358        C  0.40327445  0.86557245  0.89210673     0.03800
H359        H  0.39833352  0.84054689  0.91488182     0.08900
H360        H  0.40477861  0.87606172  0.88799197     0.07700
N361        N  0.19102467  0.84029548  0.62609641    -0.26700
N362        N  0.20410413  0.83604636  0.62455451    -0.34500
C363        C  0.20437352  0.82213193  0.62197072     0.01700
C364        C  0.19078685  0.81727926  0.62194472     0.07700
C365        C  0.18258524  0.82910647  0.62457919    -0.05400
H366        H  0.21383197  0.81593595  0.62088506     0.08300
H367        H  0.17134556  0.82948644  0.62572994     0.09500
Cu368      Cu  0.22109263  0.84881806  0.62803861     0.44200
Cu369      Cu  0.18572440  0.86105767  0.63108150     0.42000
Cu370      Cu  0.21502955  0.88308968  0.64286692     0.43900
N371        N  0.23682931  0.86136127  0.63575176    -0.34100
N372        N  0.23476253  0.87373342  0.64185274    -0.28300
C373        C  0.24713286  0.87860921  0.64645993    -0.04400
C374        C  0.25741535  0.86881902  0.64295520     0.07800
C375        C  0.25045153  0.85805802  0.63618576     0.01600
H376        H  0.24854626  0.88856500  0.65183087     0.09200
H377        H  0.25487370  0.84835034  0.63210559     0.08300
N378        N  0.19462373  0.89031658  0.64005497    -0.35500
N379        N  0.18407856  0.88248609  0.63573572    -0.27700
C380        C  0.17270406  0.89076531  0.63422587    -0.02900
C381        C  0.17625925  0.90446427  0.63770286     0.05700
C382        C  0.19021886  0.90372975  0.64136826     0.03800
H383        H  0.16270146  0.88711378  0.63050284     0.08900
H384        H  0.19683501  0.91239319  0.64443821     0.07700
N385        N  0.38167556  0.86312383  0.65189520    -0.26700
N386        N  0.37914595  0.86762755  0.66488524    -0.34500
C387        C  0.36532400  0.86931540  0.66673133     0.01700
C388        C  0.35874134  0.86553433  0.65437803     0.07700
C389        C  0.36940419  0.86162626  0.64517999    -0.05400
H390        H  0.36040826  0.87234353  0.67659485     0.08300
H391        H  0.36831742  0.85783003  0.63446831     0.09500
Cu392      Cu  0.39401081  0.86877760  0.68049225     0.44200
Cu393      Cu  0.40181041  0.85881776  0.64436751     0.42000
Cu394      Cu  0.42708848  0.85320943  0.67269351     0.43900
N395        N  0.40800964  0.86309082  0.69594045    -0.34100
N396        N  0.41993711  0.85652929  0.69327784    -0.28300
C397        C  0.42579606  0.85279949  0.70563127    -0.04400
C398        C  0.41711921  0.85734412  0.71653692     0.07800
C399        C  0.40597027  0.86383316  0.70994877     0.01600
H400        H  0.43556031  0.84711002  0.70659362     0.09200
H401        H  0.39673142  0.86824738  0.71491075     0.08300
N402        N  0.43218749  0.85353314  0.65125632    -0.35500
N403        N  0.42318349  0.85567356  0.64092942    -0.27700
C404        C  0.43023520  0.85611015  0.62856466    -0.02900
C405        C  0.44434767  0.85420939  0.63124175     0.05700
C406        C  0.44512348  0.85257733  0.64574814     0.03800
H407        H  0.42547563  0.85802699  0.61842602     0.08900
H408        H  0.45444647  0.85110662  0.65196496     0.07700
N409        N  0.15174381  0.65237002  0.65565707    -0.26700
N410        N  0.15183400  0.66586888  0.65909590    -0.34500
C411        C  0.15051312  0.66717687  0.67315327     0.01700
C412        C  0.14933912  0.65389319  0.67892468     0.07700
C413        C  0.15005667  0.64471953  0.66751477    -0.05400
H414        H  0.15093391  0.67707656  0.67881175     0.08300
H415        H  0.15035198  0.63334356  0.66790820     0.09500
Cu416      Cu  0.15549908  0.68201267  0.64496429     0.44200
Cu417      Cu  0.15642255  0.64538146  0.63524335     0.42000
Cu418      Cu  0.17085860  0.67259121  0.61166195     0.43900
N419        N  0.16291583  0.69675558  0.63081401    -0.34100
N420        N  0.16954513  0.69335449  0.61900123    -0.28300
C421        C  0.17460199  0.70519500  0.61312079    -0.04400
C422        C  0.17067579  0.71654703  0.62151929     0.07800
C423        C  0.16324997  0.71079909  0.63260069     0.01600
H424        H  0.18066821  0.70552425  0.60346813     0.09200
H425        H  0.15901150  0.71633943  0.64167156     0.08300
N426        N  0.16883173  0.65131000  0.60627539    -0.35500
N427        N  0.16360460  0.64156748  0.61471522    -0.27700
C428        C  0.16351921  0.62914434  0.60780027    -0.02900
C429        C  0.16882339  0.63111259  0.59432965     0.05700
C430        C  0.17208146  0.64531276  0.59376370     0.03800
H431        H  0.15958024  0.61943946  0.61217727     0.08900
H432        H  0.17635445  0.65094989  0.58485776     0.07700
N433        N  0.67686041  0.84348600  0.15981051    -0.26700
N434        N  0.67148786  0.83099063  0.16257841    -0.34500
C435        C  0.66797358  0.83051519  0.17635216     0.01700
C436        C  0.67142253  0.84325636  0.18257030     0.07700
C437        C  0.67705172  0.85118681  0.17175404    -0.05400
H438        H  0.66377546  0.82134697  0.18156362     0.08300
H439        H  0.68115175  0.86174474  0.17252173     0.09500
Cu440      Cu  0.67065234  0.81451690  0.14794371     0.44200
Cu441      Cu  0.68380186  0.84972942  0.14000078     0.42000
Cu442      Cu  0.68641270  0.82199679  0.11410092     0.43900
N443        N  0.67456554  0.79911762  0.13261130    -0.34100
N444        N  0.68096315  0.80182234  0.12052907    -0.28300
C445        C  0.68366420  0.78960127  0.11377663    -0.04400
C446        C  0.67861888  0.77864698  0.12190043     0.07800
C447        C  0.67284500  0.78509040  0.13374249     0.01600
H448        H  0.68925902  0.78873466  0.10386041     0.09200
H449        H  0.66853997  0.77991308  0.14291729     0.08300
N450        N  0.68972681  0.84313405  0.10952346    -0.35500
N451        N  0.68858848  0.85339225  0.11893011    -0.27700
C452        C  0.69020712  0.86585067  0.11236735    -0.02900
C453        C  0.69255714  0.86329183  0.09814370     0.05700
C454        C  0.69221778  0.84876103  0.09677276     0.03800
H455        H  0.68943172  0.87600465  0.11752057     0.08900
H456        H  0.69314652  0.84270240  0.08712577     0.07700
N457        N  0.69712165  0.86154353  0.35383917    -0.26700
N458        N  0.70125353  0.86586330  0.34122935    -0.34500
C459        C  0.71510638  0.86806242  0.34139084     0.01700
C460        C  0.72010688  0.86474084  0.35461436     0.07700
C461        C  0.70843354  0.86056198  0.36224241    -0.05400
H462        H  0.72124389  0.87096339  0.33224711     0.08300
H463        H  0.70822133  0.85687717  0.37302790     0.09500
Cu464      Cu  0.68881653  0.86605943  0.32334742     0.44200
Cu465      Cu  0.67616827  0.85695143  0.35873161     0.42000
Cu466      Cu  0.65465001  0.85190991  0.32768363     0.43900
N467        N  0.67624410  0.86074576  0.30637613    -0.34100
N468        N  0.66391876  0.85479153  0.30801954    -0.28300
C469        C  0.65879662  0.85146837  0.29524800    -0.04400
C470        C  0.66828490  0.85567101  0.28504418     0.07800
C471        C  0.67923328  0.86153042  0.29249591     0.01600
H472        H  0.64886059  0.84641194  0.29352269     0.09200
H473        H  0.68885137  0.86564169  0.28819189     0.08300
N474        N  0.64677220  0.85210285  0.34818854    -0.35500
N475        N  0.65441988  0.85395438  0.35962274    -0.27700
C476        C  0.64584121  0.85421220  0.37099944    -0.02900
C477        C  0.63216175  0.85249921  0.36647191     0.05700
C478        C  0.63324837  0.85118751  0.35194984     0.03800
H479        H  0.64927805  0.85585621  0.38172839     0.08900
H480        H  0.62477380  0.84991603  0.34456666     0.07700
N481        N  0.88868348  0.82711791  0.36790179    -0.26700
N482        N  0.87560959  0.82299231  0.36959812    -0.34500
C483        C  0.87526551  0.80885924  0.37007937     0.01700
C484        C  0.88872440  0.80370036  0.36852415     0.07700
C485        C  0.89697579  0.81558297  0.36710677    -0.05400
H486        H  0.86582280  0.80278708  0.37126208     0.08300
H487        H  0.90819328  0.81583087  0.36576999     0.09500
Cu488      Cu  0.85835270  0.83632391  0.37058622     0.44200
Cu489      Cu  0.89450063  0.84838189  0.36702862     0.42000
Cu490      Cu  0.86463509  0.87289450  0.36691734     0.43900
N491        N  0.84225169  0.85100120  0.36931717    -0.34100
N492        N  0.84449684  0.86458084  0.36750899    -0.28300
C493        C  0.83209644  0.87121898  0.36605986    -0.04400
C494        C  0.82153733  0.86132958  0.36715035     0.07800
C495        C  0.82841169  0.84863202  0.36924107     0.01600
H496        H  0.83086132  0.88239510  0.36427125     0.09200
H497        H  0.82373497  0.83834668  0.37017058     0.08300
N498        N  0.88554951  0.87904473  0.36663948    -0.35500
N499        N  0.89644741  0.87039631  0.36667133    -0.27700
C500        C  0.90824437  0.87815012  0.36647404    -0.02900
C501        C  0.90457502  0.89233548  0.36629581     0.05700
C502        C  0.89011148  0.89239450  0.36641564     0.03800
H503        H  0.91870082  0.87377883  0.36648012     0.08900
H504        H  0.88331424  0.90153525  0.36637350     0.07700
N505        N  0.88153038  0.61819352  0.14370099    -0.26700
N506        N  0.87746860  0.61580886  0.15683190    -0.34500
C507        C  0.86347749  0.61513818  0.15730554     0.01700
C508        C  0.85841554  0.61731041  0.14386005     0.07700
C509        C  0.87013816  0.61926847  0.13548580    -0.05400
H510        H  0.85743912  0.61358727  0.16684342     0.08300
H511        H  0.87038122  0.62129108  0.12426105     0.09500
Cu512      Cu  0.89071891  0.61473556  0.17395993     0.44200
Cu513      Cu  0.90242086  0.61992762  0.13775270     0.42000
Cu514      Cu  0.92649518  0.62273843  0.16742535     0.43900
N515        N  0.90506653  0.61722932  0.18998721    -0.34100
N516        N  0.91815838  0.62087911  0.18765071    -0.28300
C517        C  0.92443946  0.62309380  0.20013000    -0.04400
C518        C  0.91485988  0.62053284  0.21080532     0.07800
C519        C  0.90269866  0.61680366  0.20398023     0.01600
H520        H  0.93513723  0.62645668  0.20133559     0.09200
H521        H  0.89268513  0.61460642  0.20879367     0.08300
N522        N  0.93261669  0.62267264  0.14631083    -0.35500
N523        N  0.92401409  0.62143933  0.13550994    -0.27700
C524        C  0.93154221  0.62134108  0.12344259    -0.02900
C525        C  0.94553901  0.62264423  0.12680911     0.05700
C526        C  0.94578036  0.62345687  0.14140852     0.03800
H527        H  0.92713897  0.62040347  0.11300165     0.08900
H528        H  0.95485976  0.62438129  0.14806182     0.07700
N529        N  0.91221607  0.63531749  0.33592198    -0.26700
N530        N  0.91650575  0.64803785  0.33236995    -0.34500
C531        C  0.91896629  0.64829818  0.31838220     0.01700
C532        C  0.91593557  0.63517203  0.31283354     0.07700
C533        C  0.91166814  0.62722073  0.32425240    -0.05400
H534        H  0.92200821  0.65758149  0.31258317     0.08300
H535        H  0.90814048  0.61642623  0.32406690     0.09500
Cu536      Cu  0.91684962  0.66512276  0.34615841     0.44200
Cu537      Cu  0.90656142  0.62965562  0.35632195     0.42000
Cu538      Cu  0.90174025  0.65885609  0.38050859     0.43900
N539        N  0.91214712  0.68116393  0.36043891    -0.34100
N540        N  0.90588724  0.67892753  0.37269201    -0.28300
C541        C  0.90241826  0.69143480  0.37851779    -0.04400
C542        C  0.90686638  0.70205034  0.36960034     0.07800
C543        C  0.91304602  0.69513714  0.35827167     0.01600
H544        H  0.89673019  0.69269926  0.38833883     0.09200
H545        H  0.91703055  0.69988183  0.34871820     0.08300
N546        N  0.89946648  0.63779229  0.38624844    -0.35500
N547        N  0.90130030  0.62708766  0.37745912    -0.27700
C548        C  0.89968237  0.61494843  0.38458937    -0.02900
C549        C  0.89669978  0.61814337  0.39857026     0.05700
C550        C  0.89662799  0.63274538  0.39918549     0.03800
H551        H  0.90089573  0.60457438  0.37998744     0.08900
H552        H  0.89495774  0.63928069  0.40841415     0.07700
N553        N  0.69202800  0.65308961  0.12047012    -0.26700
N554        N  0.70480509  0.65656954  0.11643919    -0.34500
C555        C  0.70542492  0.67059992  0.11468554     0.01700
C556        C  0.69248453  0.67637530  0.11786275     0.07700
C557        C  0.68425298  0.66495403  0.12150880    -0.05400
H558        H  0.71482444  0.67622679  0.11192586     0.08300
H559        H  0.67344871  0.66526796  0.12488503     0.09500
Cu560      Cu  0.72172860  0.64283045  0.11550490     0.44200
Cu561      Cu  0.68583585  0.63233197  0.12491630     0.42000
Cu562      Cu  0.71523063  0.60934480  0.13090798     0.43900
N563        N  0.73760072  0.62892544  0.12085706    -0.34100
N564        N  0.73513103  0.61694092  0.12740261    -0.28300
C565        C  0.74732914  0.61105597  0.13120732    -0.04400
C566        C  0.75802415  0.61968650  0.12671187     0.07800
C567        C  0.75148677  0.63091216  0.12013566     0.01600
H568        H  0.74831164  0.60131366  0.13700628     0.09200
H569        H  0.75639918  0.64019904  0.11586192     0.08300
N570        N  0.69477316  0.60248912  0.13106000    -0.35500
N571        N  0.68377557  0.61063224  0.12878422    -0.27700
C572        C  0.67223765  0.60248745  0.12885165    -0.02900
C573        C  0.67627575  0.58858670  0.13120875     0.05700
C574        C  0.69062731  0.58910574  0.13255992     0.03800
H575        H  0.66175909  0.60633247  0.12697462     0.08900
H576        H  0.69765862  0.58031766  0.13423576     0.07700
N577        N  0.18767466  0.15943272  0.63017664    -0.26700
N578        N  0.20013019  0.16382147  0.62602722    -0.34500
C579        C  0.19979234  0.17790685  0.62467105     0.01700
C580        C  0.18661577  0.18272529  0.62837166     0.07700
C581        C  0.17920149  0.17073640  0.63187249    -0.05400
H582        H  0.20870294  0.18425178  0.62182702     0.08300
H583        H  0.16845544  0.17026155  0.63538617     0.09500
Cu584      Cu  0.21788830  0.15113514  0.62421075     0.44200
Cu585      Cu  0.18277922  0.13819868  0.63329430     0.42000
Cu586      Cu  0.21319708  0.11533688  0.63414533     0.43900
N587        N  0.23456933  0.13723430  0.62690260    -0.34100
N588        N  0.23272801  0.12412308  0.63107609    -0.28300
C589        C  0.24524932  0.11798884  0.63304718    -0.04400
C590        C  0.25554255  0.12765684  0.62988996     0.07800
C591        C  0.24838021  0.13976948  0.62599546     0.01600
H592        H  0.24673193  0.10730267  0.63667006     0.09200
H593        H  0.25284440  0.14981629  0.62322337     0.08300
N594        N  0.19285453  0.10811707  0.63550453    -0.35500
N595        N  0.18161928  0.11626206  0.63504246    -0.27700
C596        C  0.17019070  0.10802041  0.63543656    -0.02900
C597        C  0.17449736  0.09404733  0.63620974     0.05700
C598        C  0.18892391  0.09459305  0.63625893     0.03800
H599        H  0.15956517  0.11190860  0.63497878     0.08900
H600        H  0.19610989  0.08576423  0.63649332     0.07700
N601        N  0.37941270  0.12873244  0.64375203    -0.26700
N602        N  0.37552965  0.12396017  0.65626885    -0.34500
C603        C  0.36174295  0.12132497  0.65605514     0.01700
C604        C  0.35664277  0.12482143  0.64288058     0.07700
C605        C  0.36812115  0.12953812  0.63537559    -0.05400
H606        H  0.35572606  0.11790020  0.66509205     0.08300
H607        H  0.36823752  0.13343016  0.62466105     0.09500
Cu608      Cu  0.38850055  0.12328754  0.67385640     0.44200
Cu609      Cu  0.39990417  0.13391540  0.63853126     0.42000
Cu610      Cu  0.42319342  0.13652851  0.66814264     0.43900
N611        N  0.40231701  0.12757044  0.69022351    -0.34100
N612        N  0.41478570  0.13306866  0.68805935    -0.28300
C613        C  0.42062951  0.13604728  0.70058431    -0.04400
C614        C  0.41147884  0.13212642  0.71119430     0.07800
C615        C  0.39997779  0.12674379  0.70423377     0.01600
H616        H  0.43072141  0.14091902  0.70185482     0.09200
H617        H  0.39034773  0.12315103  0.70897273     0.08300
N618        N  0.42983517  0.13761550  0.64728350    -0.35500
N619        N  0.42138649  0.13657601  0.63635583    -0.27700
C620        C  0.42906211  0.13688588  0.62439424    -0.02900
C621        C  0.44301145  0.13822628  0.62798148     0.05700
C622        C  0.44306040  0.13867295  0.64259761     0.03800
H623        H  0.42481071  0.13603900  0.61388160     0.08900
H624        H  0.45205799  0.13940577  0.64939161     0.07700
N625        N  0.17116277  0.35210075  0.66603828    -0.26700
N626        N  0.16877392  0.33898388  0.66997431    -0.34500
C627        C  0.16822232  0.33839106  0.68411384     0.01700
C628        C  0.17049206  0.35171482  0.68948501     0.07700
C629        C  0.17239219  0.36017967  0.67772648    -0.05400
H630        H  0.16672624  0.32881533  0.69006016     0.08300
H631        H  0.17449730  0.37135510  0.67767124     0.09500
Cu632      Cu  0.16751376  0.32188486  0.65642582     0.44200
Cu633      Cu  0.17273579  0.35797694  0.64479518     0.42000
Cu634      Cu  0.17470099  0.32805854  0.62004952     0.43900
N635        N  0.16914455  0.30567223  0.64182487    -0.34100
N636        N  0.17231520  0.30783447  0.62842531    -0.28300
C637        C  0.17380883  0.29525730  0.62193751    -0.04400
C638        C  0.17135072  0.28468893  0.63171095     0.07800
C639        C  0.16838880  0.29172943  0.64420454     0.01600
H640        H  0.17669871  0.29389696  0.61096031     0.09200
H641        H  0.16644798  0.28707929  0.65442339     0.08300
N642        N  0.17540993  0.34925088  0.61402832    -0.35500
N643        N  0.17440013  0.36007220  0.62283692    -0.27700
C644        C  0.17470286  0.37211279  0.61531476    -0.02900
C645        C  0.17605740  0.36875735  0.60110381     0.05700
C646        C  0.17648022  0.35415084  0.60075256     0.03800
H647        H  0.17398806  0.38255166  0.61986780     0.08900
H648        H  0.17729115  0.34749949  0.59149595     0.07700
N649        N  0.41000227  0.14878573  0.83660909    -0.26700
N650        N  0.41452487  0.16132651  0.83269117    -0.34500
C651        C  0.41591037  0.16158020  0.81857689     0.01700
C652        C  0.41198567  0.14864923  0.81322216     0.07700
C653        C  0.40823933  0.14079827  0.82495080    -0.05400
H654        H  0.41915751  0.17069845  0.81263123     0.08300
H655        H  0.40456826  0.13005388  0.82501329     0.09500
Cu656      Cu  0.41736867  0.17837384  0.84609258     0.44200
Cu657      Cu  0.40656204  0.14315014  0.85772892     0.42000
Cu658      Cu  0.40618217  0.17330366  0.88145639     0.43900
N659        N  0.41515621  0.19489891  0.86030105    -0.34100
N660        N  0.41030924  0.19306137  0.87322892    -0.28300
C661        C  0.40831715  0.20571530  0.87936267    -0.04400
C662        C  0.41219276  0.21603517  0.86985904     0.07800
C663        C  0.41653734  0.20877770  0.85788943     0.01600
H664        H  0.40403958  0.20728321  0.88984415     0.09200
H665        H  0.41968889  0.21324891  0.84789719     0.08300
N666        N  0.40440966  0.15260979  0.88814186    -0.35500
N667        N  0.40463112  0.14146692  0.87972545    -0.27700
C668        C  0.40406929  0.12975595  0.88775849    -0.02900
C669        C  0.40351017  0.13378498  0.90187661     0.05700
C670        C  0.40371633  0.14834098  0.90161853     0.03800
H671        H  0.40438500  0.11912309  0.88364082     0.08900
H672        H  0.40369713  0.15538615  0.91061674     0.07700
N673        N  0.39951354  0.34127576  0.86592233    -0.26700
N674        N  0.38725436  0.33803269  0.87147438    -0.34500
C675        C  0.38691217  0.32413706  0.87407340     0.01700
C676        C  0.39948959  0.31824511  0.86981383     0.07700
C677        C  0.40722650  0.32941114  0.86466376    -0.05400
H678        H  0.37789287  0.31864046  0.87811305     0.08300
H679        H  0.41762684  0.32892558  0.86017325     0.09500
Cu680      Cu  0.37066252  0.35200417  0.87344376     0.44200
Cu681      Cu  0.40495130  0.36174241  0.86011673     0.42000
Cu682      Cu  0.37578406  0.38649863  0.85899026     0.43900
N683        N  0.35445865  0.36618922  0.87041965    -0.34100
N684        N  0.35616576  0.37862453  0.86446735    -0.28300
C685        C  0.34352852  0.38464173  0.86265906    -0.04400
C686        C  0.33342070  0.37560528  0.86785176     0.07800
C687        C  0.34076407  0.36402113  0.87270314     0.01600
H688        H  0.34181330  0.39476575  0.85775350     0.09200
H689        H  0.33645474  0.35443269  0.87697102     0.08300
N690        N  0.39662114  0.39219323  0.85583624    -0.35500
N691        N  0.40727067  0.38326824  0.85628350    -0.27700
C692        C  0.41924640  0.39050041  0.85461083    -0.02900
C693        C  0.41601457  0.40466758  0.85304515     0.05700
C694        C  0.40154752  0.40528422  0.85385801     0.03800
H695        H  0.42956465  0.38582186  0.85484438     0.08900
H696        H  0.39503638  0.41460586  0.85340856     0.07700
N697        N  0.20915760  0.36983034  0.85933402    -0.26700
N698        N  0.21295844  0.37241231  0.84615209    -0.34500
C699        C  0.22678771  0.37459535  0.84568942     0.01700
C700        C  0.23205422  0.37317564  0.85915594     0.07700
C701        C  0.22060542  0.37007770  0.86756326    -0.05400
H702        H  0.23265887  0.37657798  0.83612467     0.08300
H703        H  0.22058229  0.36819587  0.87881474     0.09500
Cu704      Cu  0.19984628  0.37158736  0.82880685     0.44200
Cu705      Cu  0.18850235  0.36622701  0.86537587     0.42000
Cu706      Cu  0.16488757  0.36155438  0.83545599     0.43900
N707        N  0.18592155  0.36731360  0.81267715    -0.34100
N708        N  0.17308881  0.36292126  0.81514494    -0.28300
C709        C  0.16692438  0.35996638  0.80275353    -0.04400
C710        C  0.17628939  0.36283774  0.79195981     0.07800
C711        C  0.18822150  0.36750054  0.79865149     0.01600
H712        H  0.15638593  0.35609917  0.80167987     0.09200
H713        H  0.19799828  0.37038792  0.79372290     0.08300
N714        N  0.15858963  0.36201430  0.85649911    -0.35500
N715        N  0.16697324  0.36359631  0.86743247    -0.27700
C716        C  0.15922098  0.36361827  0.87937378    -0.02900
C717        C  0.14530912  0.36206231  0.87574119     0.05700
C718        C  0.14537113  0.36106872  0.86115830     0.03800
H719        H  0.16338147  0.36491060  0.88988055     0.08900
H720        H  0.13645838  0.35979675  0.85433359     0.07700
N721        N  0.16880631  0.61551845  0.19037722    -0.26700
N722        N  0.18192304  0.61223318  0.19316141    -0.34500
C723        C  0.18369354  0.61198123  0.20722066     0.01700
C724        C  0.17113474  0.61544224  0.21367937     0.07700
C725        C  0.16190098  0.61766756  0.20266046    -0.05400
H726        H  0.19354318  0.60988051  0.21235895     0.08300
H727        H  0.15099541  0.62058260  0.20350255     0.09500
Cu728      Cu  0.19707955  0.60957907  0.17761693     0.44200
Cu729      Cu  0.16147779  0.61663800  0.16972193     0.42000
Cu730      Cu  0.18735510  0.61433723  0.14080678     0.43900
N731        N  0.21143846  0.61036528  0.16114251    -0.34100
N732        N  0.20820128  0.61274818  0.14779882    -0.28300
C733        C  0.22018813  0.61374308  0.14026333    -0.04400
C734        C  0.23141311  0.61169376  0.14929752     0.07800
C735        C  0.22540050  0.60953814  0.16239598     0.01600
H736        H  0.22070559  0.61567324  0.12903358     0.09200
H737        H  0.23080225  0.60787177  0.17224615     0.08300
N738        N  0.16554436  0.61543344  0.13776260    -0.35500
N739        N  0.15645335  0.61629103  0.14831801    -0.27700
C740        C  0.14344994  0.61689012  0.14306358    -0.02900
C741        C  0.14418307  0.61642505  0.12845695     0.05700
C742        C  0.15840403  0.61547577  0.12547611     0.03800
H743        H  0.13413132  0.61766042  0.14950451     0.08900
H744        H  0.16320397  0.61491666  0.11513557     0.07700
N745        N  0.16282256  0.64086887  0.33616563    -0.26700
N746        N  0.15858639  0.65354382  0.33225141    -0.34500
C747        C  0.15585543  0.65340593  0.31835331     0.01700
C748        C  0.15868260  0.64008670  0.31312582     0.07700
C749        C  0.16312608  0.63239214  0.32470619    -0.05400
H750        H  0.15274638  0.66255967  0.31235227     0.08300
H751        H  0.16644816  0.62148964  0.32477411     0.09500
Cu752      Cu  0.15880046  0.67121406  0.34516170     0.44200
Cu753      Cu  0.16805452  0.63596577  0.35702022     0.42000
Cu754      Cu  0.17439617  0.66684202  0.37906565     0.43900
N755        N  0.16466396  0.68810374  0.35766242    -0.34100
N756        N  0.17128840  0.68655280  0.36975802    -0.28300
C757        C  0.17521570  0.69934485  0.37442832    -0.04400
C758        C  0.17067162  0.70941981  0.36489351     0.07800
C759        C  0.16399397  0.70187810  0.35442028     0.01600
H760        H  0.18106738  0.70117068  0.38398456     0.09200
H761        H  0.15961818  0.70601308  0.34477948     0.08300
N762        N  0.17377337  0.64619795  0.38670248    -0.35500
N763        N  0.17141039  0.63493718  0.37882019    -0.27700
C764        C  0.17078779  0.62351895  0.38725602    -0.02900
C765        C  0.17281333  0.62778925  0.40112464     0.05700
C766        C  0.17469116  0.64223134  0.40028618     0.03800
H767        H  0.16865993  0.61295677  0.38359098     0.08900
H768        H  0.17629150  0.64943414  0.40898833     0.07700
N769        N  0.39754457  0.65216079  0.11495433    -0.26700
N770        N  0.38451465  0.65586423  0.11219598    -0.34500
C771        C  0.38396538  0.66976328  0.10963934     0.01700
C772        C  0.39723009  0.67521976  0.11102436     0.07700
C773        C  0.40560964  0.66375910  0.11445800    -0.05400
H774        H  0.37447279  0.67556713  0.10743546     0.08300
H775        H  0.41672329  0.66383691  0.11639002     0.09500
Cu776      Cu  0.36763872  0.64234149  0.11354454     0.44200
Cu777      Cu  0.40330804  0.63125504  0.11893239     0.42000
Cu778      Cu  0.37378584  0.60706836  0.12500929     0.43900
N779        N  0.35161344  0.62879667  0.11905475    -0.34100
N780        N  0.35372756  0.61598320  0.12402516    -0.28300
C781        C  0.34128034  0.61049264  0.12779501    -0.04400
C782        C  0.33086692  0.62031056  0.12488739     0.07800
C783        C  0.33785979  0.63172716  0.11931068     0.01600
H784        H  0.33990125  0.60011940  0.13223797     0.09200
H785        H  0.33332193  0.64165279  0.11607728     0.08300
N786        N  0.39479621  0.60081435  0.12357570    -0.35500
N787        N  0.40538860  0.60942531  0.12128835    -0.27700
C788        C  0.41730208  0.60178567  0.12056949    -0.02900
C789        C  0.41412620  0.58770836  0.12256181     0.05700
C790        C  0.39974776  0.58754042  0.12443340     0.03800
H791        H  0.42754537  0.60618171  0.11878543     0.08900
H792        H  0.39328494  0.57841512  0.12619011     0.07700
N793        N  0.18960072  0.83368937  0.35405660    -0.26700
N794        N  0.20248900  0.82931930  0.35647457    -0.34500
C795        C  0.20250689  0.81527386  0.35809796     0.01700
C796        C  0.18899191  0.81044652  0.35654837     0.07700
C797        C  0.18106634  0.82242992  0.35391882    -0.05400
H798        H  0.21175722  0.80901678  0.36010285     0.08300
H799        H  0.16990324  0.82295830  0.35230191     0.09500
Cu800      Cu  0.21963996  0.84255850  0.35697620     0.44200
Cu801      Cu  0.18471580  0.85501487  0.35176687     0.42000
Cu802      Cu  0.21417720  0.87974374  0.35029621     0.43900
N803        N  0.23582270  0.85685541  0.35495087    -0.34100
N804        N  0.23402128  0.87032029  0.35189329    -0.28300
C805        C  0.24668676  0.87626040  0.35020287    -0.04400
C806        C  0.25689105  0.86608011  0.35250439     0.07800
C807        C  0.24957469  0.85393821  0.35551098     0.01600
H808        H  0.24835205  0.88716769  0.34747748     0.09200
H809        H  0.25391150  0.84359229  0.35744723     0.08300
N810        N  0.19304419  0.88590219  0.35038361    -0.35500
N811        N  0.18256110  0.87690048  0.35106194    -0.27700
C812        C  0.17044601  0.88414198  0.35170342    -0.02900
C813        C  0.17328560  0.89840695  0.35135761     0.05700
C814        C  0.18775847  0.89912551  0.35047437     0.03800
H815        H  0.16027202  0.87932941  0.35254264     0.08900
H816        H  0.19401440  0.90855782  0.35029564     0.07700
N817        N  0.38173230  0.86049005  0.34252758    -0.26700
N818        N  0.37854973  0.86508338  0.32976479    -0.34500
C819        C  0.36466121  0.86699211  0.32892513     0.01700
C820        C  0.35867815  0.86329268  0.34167738     0.07700
C821        C  0.36980269  0.85913607  0.35004991    -0.05400
H822        H  0.35926979  0.87041075  0.31952873     0.08300
H823        H  0.36927461  0.85552589  0.36084832     0.09500
Cu824      Cu  0.39269428  0.86726781  0.31325492     0.44200
Cu825      Cu  0.40232221  0.85664862  0.34908396     0.42000
Cu826      Cu  0.42732429  0.85546925  0.32000180     0.43900
N827        N  0.40748291  0.86455856  0.29738308    -0.34100
N828        N  0.42005518  0.85933208  0.29978096    -0.28300
C829        C  0.42667025  0.85727636  0.28736411    -0.04400
C830        C  0.41787818  0.86161983  0.27665434     0.07800
C831        C  0.40582792  0.86621806  0.28339895     0.01600
H832        H  0.43706710  0.85289304  0.28622430     0.09200
H833        H  0.39631173  0.86986342  0.27847447     0.08300
N834        N  0.43285801  0.85413771  0.34111964    -0.35500
N835        N  0.42397966  0.85454533  0.35186107    -0.27700
C836        C  0.43130969  0.85379423  0.36399120    -0.02900
C837        C  0.44544797  0.85289714  0.36066586     0.05700
C838        C  0.44593588  0.85316805  0.34607225     0.03800
H839        H  0.42669900  0.85405157  0.37443650     0.08900
H840        H  0.45517464  0.85279930  0.33945718     0.07700
N841        N  0.41847048  0.79819433  0.11451988    -0.26700
N842        N  0.42478694  0.79592415  0.12668761    -0.34500
C843        C  0.42654929  0.78199133  0.12847701     0.01700
C844        C  0.42093034  0.77504357  0.11700722     0.07700
C845        C  0.41589934  0.78566022  0.10834249    -0.05400
H846        H  0.43091144  0.77724320  0.13784194     0.08300
H847        H  0.41048253  0.78436890  0.09844158     0.09500
Cu848      Cu  0.42877126  0.81146521  0.14154841     0.44200
Cu849      Cu  0.41297234  0.81833897  0.10742056     0.42000
Cu850      Cu  0.41623687  0.84622994  0.13373788     0.43900
N851        N  0.42797564  0.82758755  0.15636897    -0.34100
N852        N  0.42295881  0.84026894  0.15363658    -0.28300
C853        C  0.42256215  0.84784355  0.16567093    -0.04400
C854        C  0.42762038  0.83951704  0.17650323     0.07800
C855        C  0.43098891  0.82676638  0.17018391     0.01600
H856        H  0.41861756  0.85850783  0.16648936     0.09200
H857        H  0.43479824  0.81737005  0.17534260     0.08300
N858        N  0.41014040  0.84967273  0.11304211    -0.35500
N859        N  0.40880820  0.83964220  0.10342624    -0.27700
C860        C  0.40506470  0.84562044  0.09111372    -0.02900
C861        C  0.40408071  0.86009744  0.09308442     0.05700
C862        C  0.40737190  0.86222174  0.10711946     0.03800
H863        H  0.40359820  0.83988415  0.08136518     0.08900
H864        H  0.40797523  0.87220355  0.11260370     0.07700
N865        N  0.67210126  0.14258607  0.15700509    -0.26700
N866        N  0.66771090  0.15529990  0.16072448    -0.34500
C867        C  0.66495977  0.15551658  0.17462685     0.01700
C868        C  0.66791635  0.14239298  0.18012789     0.07700
C869        C  0.67249270  0.13440809  0.16865271    -0.05400
H870        H  0.66151901  0.16475748  0.18041447     0.08300
H871        H  0.67575814  0.12349011  0.16875056     0.09500
Cu872      Cu  0.66716740  0.17248480  0.14733859     0.44200
Cu873      Cu  0.67694089  0.13758862  0.13594157     0.42000
Cu874      Cu  0.67957146  0.16784582  0.11175193     0.43900
N875        N  0.67116250  0.18923072  0.13399098    -0.34100
N876        N  0.67624980  0.18770419  0.12107547    -0.28300
C877        C  0.67894198  0.20058574  0.11578819    -0.04400
C878        C  0.67531526  0.21066892  0.12586205     0.07800
C879        C  0.67037449  0.20302334  0.13721994     0.01600
H880        H  0.68337589  0.20245509  0.10545329     0.09200
H881        H  0.66695846  0.20714662  0.14733033     0.08300
N882        N  0.68112467  0.14667169  0.10533316    -0.35500
N883        N  0.67997016  0.13585640  0.11404058    -0.27700
C884        C  0.68079589  0.12381788  0.10648905    -0.02900
C885        C  0.68265806  0.12708120  0.09235629     0.05700
C886        C  0.68284691  0.14170671  0.09205367     0.03800
H887        H  0.68005563  0.11339931  0.11098583     0.08900
H888        H  0.68389004  0.14828186  0.08282456     0.07700
N889        N  0.69594748  0.33451299  0.12102898    -0.26700
N890        N  0.70882471  0.33089266  0.11732076    -0.34500
C891        C  0.70949388  0.31689508  0.11527972     0.01700
C892        C  0.69651637  0.31126019  0.11803854     0.07700
C893        C  0.68814785  0.32272157  0.12170568    -0.05400
H894        H  0.71892591  0.31115857  0.11254115     0.08300
H895        H  0.67721817  0.32250005  0.12461038     0.09500
Cu896      Cu  0.72565334  0.34449659  0.11686115     0.44200
Cu897      Cu  0.68994155  0.35553031  0.12497044     0.42000
Cu898      Cu  0.71968568  0.37968583  0.12821715     0.43900
N899        N  0.74179959  0.35839681  0.12065383    -0.34100
N900        N  0.73972621  0.37130826  0.12548011    -0.28300
C901        C  0.75221735  0.37719078  0.12816414    -0.04400
C902        C  0.76263102  0.36751782  0.12472313     0.07800
C903        C  0.75559448  0.35574361  0.11997689     0.01600
H904        H  0.75360883  0.38765726  0.13244999     0.09200
H905        H  0.76012596  0.34574763  0.11683569     0.08300
N906        N  0.69874670  0.38592962  0.12910021    -0.35500
N907        N  0.68790168  0.37742687  0.12797455    -0.27700
C908        C  0.67606723  0.38525097  0.12878135    -0.02900
C909        C  0.67965832  0.39932101  0.13045114     0.05700
C910        C  0.69411636  0.39924843  0.13058678     0.03800
H911        H  0.66563769  0.38102852  0.12801393     0.08900
H912        H  0.70085905  0.40828122  0.13160812     0.07700
N913        N  0.70558698  0.12134246  0.34818926    -0.26700
N914        N  0.70863572  0.11551365  0.33585359    -0.34500
C915        C  0.72232076  0.11226864  0.33539400     0.01700
C916        C  0.72826393  0.11644202  0.34796935     0.07700
C917        C  0.71737255  0.12220656  0.35582178    -0.05400
H918        H  0.72771285  0.10811545  0.32620581     0.08300
H919        H  0.71803384  0.12698420  0.36617385     0.09500
Cu920      Cu  0.69474594  0.11471929  0.31926176     0.44200
Cu921      Cu  0.68546087  0.12809044  0.35364815     0.42000
Cu922      Cu  0.66061583  0.13016589  0.32442916     0.43900
N923        N  0.68132914  0.11915584  0.30282804    -0.34100
N924        N  0.66902408  0.12536382  0.30441963    -0.28300
C925        C  0.66368876  0.12786778  0.29149716    -0.04400
C926        C  0.67310242  0.12291843  0.28136544     0.07800
C927        C  0.68410651  0.11745784  0.28900899     0.01600
H928        H  0.65377437  0.13301865  0.28962133     0.09200
H929        H  0.69371104  0.11301115  0.28483623     0.08300
N930        N  0.65510649  0.13264971  0.34582282    -0.35500
N931        N  0.66409867  0.13191924  0.35635900    -0.27700
C932        C  0.65707064  0.13307256  0.36869483    -0.02900
C933        C  0.64295152  0.13459548  0.36588077     0.05700
C934        C  0.64214913  0.13431924  0.35123871     0.03800
H935        H  0.66186684  0.13246425  0.37897750     0.08900
H936        H  0.63278522  0.13486703  0.34494791     0.07700
N937        N  0.88654169  0.36015511  0.13984883    -0.26700
N938        N  0.88268060  0.36441013  0.15259660    -0.34500
C939        C  0.86883267  0.36674615  0.15278160     0.01700
C940        C  0.86359092  0.36366165  0.13957934     0.07700
C941        C  0.87510110  0.35943509  0.13162973    -0.05400
H942        H  0.86294200  0.36997016  0.16202619     0.08300
H943        H  0.87516278  0.35615853  0.12068630     0.09500
Cu944      Cu  0.89592033  0.36550765  0.16977225     0.44200
Cu945      Cu  0.90740556  0.35594297  0.13459257     0.42000
Cu946      Cu  0.93099445  0.35391277  0.16530090     0.43900
N947        N  0.90944389  0.36285540  0.18655259    -0.34100
N948        N  0.92229836  0.35792519  0.18512568    -0.28300
C949        C  0.92798871  0.35652989  0.19804516    -0.04400
C950        C  0.91821802  0.36093118  0.20803916     0.07800
C951        C  0.90663050  0.36487538  0.20031613     0.01600
H952        H  0.93844019  0.35265998  0.19999807     0.09200
H953        H  0.89670055  0.36859152  0.20441669     0.08300
N954        N  0.93745732  0.35307739  0.14427370    -0.35500
N955        N  0.92914347  0.35391111  0.13318705    -0.27700
C956        C  0.93705818  0.35371506  0.12136116    -0.02900
C957        C  0.95098570  0.35270192  0.12518560     0.05700
C958        C  0.95078055  0.35231152  0.13979217     0.03800
H959        H  0.93297179  0.35437918  0.11076919     0.08900
H960        H  0.95966778  0.35171226  0.14674624     0.07700
N961        N  0.91586521  0.34484544  0.33247476    -0.26700
N962        N  0.91828538  0.33167211  0.32849000    -0.34500
C963        C  0.92157441  0.33131368  0.31471175     0.01700
C964        C  0.92103920  0.34482546  0.30951411     0.07700
C965        C  0.91729206  0.35320057  0.32102403    -0.05400
H966        H  0.92375449  0.32178158  0.30878999     0.08300
H967        H  0.91586594  0.36450492  0.32108511     0.09500
Cu968      Cu  0.91607427  0.31409133  0.34101330     0.44200
Cu969      Cu  0.91120782  0.35043313  0.35363360     0.42000
Cu970      Cu  0.90641778  0.31939506  0.37637716     0.43900
N971        N  0.91168635  0.29748840  0.35425408    -0.34100
N972        N  0.90775592  0.29941671  0.36748684    -0.28300
C973        C  0.90502097  0.28681785  0.37330242    -0.04400
C974        C  0.90744176  0.27646834  0.36320742     0.07800
C975        C  0.91166360  0.28364606  0.35125333     0.01600
H976        H  0.90149876  0.28531718  0.38405551     0.09200
H977        H  0.91420976  0.27920352  0.34102800     0.08300
N978        N  0.90629979  0.34008279  0.38358040    -0.35500
N979        N  0.90785956  0.35146644  0.37571566    -0.27700
C980        C  0.90748972  0.36289369  0.38432032    -0.02900
C981        C  0.90570589  0.35840095  0.39819033     0.05700
C982        C  0.90499990  0.34390281  0.39718010     0.03800
H983        H  0.90877317  0.37362421  0.38079728     0.08900
H984        H  0.90378966  0.33654603  0.40577943     0.07700
N985        N  0.89510376  0.15122124  0.36258330    -0.26700
N986        N  0.88223934  0.15499582  0.36616415    -0.34500
C987        C  0.88144120  0.16908777  0.36707321     0.01700
C988        C  0.89433531  0.17454647  0.36368600     0.07700
C989        C  0.90276991  0.16295848  0.36080905    -0.05400
H990        H  0.87201050  0.17494467  0.36951893     0.08300
H991        H  0.91368768  0.16304757  0.35784095     0.09500
Cu992      Cu  0.86564114  0.14133207  0.36799840     0.44200
Cu993      Cu  0.90148953  0.13013993  0.36096291     0.42000
Cu994      Cu  0.87241268  0.10511298  0.36243237     0.43900
N995        N  0.84988378  0.12687222  0.36510412    -0.34100
N996        N  0.85228122  0.11341021  0.36249919    -0.28300
C997        C  0.84003088  0.10701613  0.35989263    -0.04400
C998        C  0.82943615  0.11698617  0.36101910     0.07800
C999        C  0.83611101  0.12943916  0.36434564     0.01600
H1000       H  0.83893645  0.09597753  0.35731111     0.09200
H1001       H  0.83138563  0.13973350  0.36567695     0.08300
N1002       N  0.89340659  0.09942080  0.36297482    -0.35500
N1003       N  0.90401894  0.10824168  0.36216242    -0.27700
C1004       C  0.91603685  0.10075549  0.36277532    -0.02900
C1005       C  0.91280193  0.08658825  0.36411486     0.05700
C1006       C  0.89835530  0.08622008  0.36420982     0.03800
H1007       H  0.92635247  0.10530220  0.36243413     0.08900
H1008       H  0.89182644  0.07702057  0.36504672     0.07700
N1009       N  0.39580372  0.32700587  0.12967797    -0.26700
N1010       N  0.38309027  0.32303475  0.12610051    -0.34500
C1011       C  0.38294799  0.30895456  0.12464290     0.01700
C1012       C  0.39613529  0.30381428  0.12763579     0.07700
C1013       C  0.40401210  0.31552349  0.13085876    -0.05400
H1014       H  0.37376928  0.30286681  0.12217038     0.08300
H1015       H  0.41490051  0.31570556  0.13380875     0.09500
Cu1016     Cu  0.36601518  0.33656641  0.12502763     0.44200
Cu1017     Cu  0.40152688  0.34783302  0.13251954     0.42000
Cu1018     Cu  0.37294718  0.37283660  0.13358701     0.43900
N1019       N  0.35035676  0.35140458  0.12857902    -0.34100
N1020       N  0.35291334  0.36454189  0.13237571    -0.28300
C1021       C  0.34073578  0.37104378  0.13543553    -0.04400
C1022       C  0.32999006  0.36160430  0.13330447     0.07800
C1023       C  0.33647653  0.34926434  0.12891371     0.01600
H1024       H  0.33979239  0.38181300  0.13910041     0.09200
H1025       H  0.33153816  0.33927598  0.12677877     0.08300
N1026       N  0.39390262  0.37856428  0.13385984    -0.35500
N1027       N  0.40436831  0.36943141  0.13348262    -0.27700
C1028       C  0.41652236  0.37648074  0.13356936    -0.02900
C1029       C  0.41358416  0.39076208  0.13407239     0.05700
C1030       C  0.39912041  0.39166749  0.13423234     0.03800
H1031       H  0.42672795  0.37155502  0.13324851     0.08900
H1032       H  0.39279778  0.40113228  0.13449944     0.07700
N1033       N  0.41988262  0.13544869  0.16448396    -0.26700
N1034       N  0.42270969  0.14862533  0.16801069    -0.34500
C1035       C  0.42483112  0.14942373  0.18198772     0.01700
C1036       C  0.42305840  0.13622563  0.18773754     0.07700
C1037       C  0.41986318  0.12757882  0.17635113    -0.05400
H1038       H  0.42696616  0.15907629  0.18764681     0.08300
H1039       H  0.41774063  0.11641654  0.17666962     0.09500
Cu1040     Cu  0.42190439  0.16573436  0.15451572     0.44200
Cu1041     Cu  0.41616750  0.12908998  0.14350320     0.42000
Cu1042     Cu  0.41004979  0.15896978  0.11998697     0.43900
N1043       N  0.41683834  0.18174883  0.14063574    -0.34100
N1044       N  0.41187240  0.17920792  0.12792306    -0.28300
C1045       C  0.40860159  0.19150031  0.12172014    -0.04400
C1046       C  0.41177609  0.20232470  0.13096799     0.07800
C1047       C  0.41698715  0.19574106  0.14286534     0.01600
H1048       H  0.40423271  0.19246793  0.11126530     0.09200
H1049       H  0.42026619  0.20069886  0.15257748     0.08300
N1050       N  0.41032580  0.13812938  0.11346663    -0.35500
N1051       N  0.41258459  0.12710901  0.12166089    -0.27700
C1052       C  0.41214693  0.11534644  0.11357677    -0.02900
C1053       C  0.40950191  0.11923292  0.09969601     0.05700
C1054       C  0.40843494  0.13375656  0.10014020     0.03800
H1055       H  0.41368414  0.10477195  0.11748916     0.08900
H1056       H  0.40641351  0.14076198  0.09141468     0.07700
N1057       N  0.38355195  0.11394457  0.35744072    -0.26700
N1058       N  0.38037581  0.10940958  0.34465622    -0.34500
C1059       C  0.36678964  0.10603076  0.34431780     0.01700
C1060       C  0.36101344  0.10880089  0.35742385     0.07700
C1061       C  0.37191105  0.11387325  0.36551240    -0.05400
H1062       H  0.36132433  0.10264548  0.33494883     0.08300
H1063       H  0.37137734  0.11742834  0.37635698     0.09500
Cu1064     Cu  0.39382846  0.11025191  0.32750579     0.44200
Cu1065     Cu  0.40366554  0.12014922  0.36281693     0.42000
Cu1066     Cu  0.42763449  0.12506488  0.33257010     0.43900
N1067       N  0.40697233  0.11527166  0.31086560    -0.34100
N1068       N  0.41931350  0.12118213  0.31248674    -0.28300
C1069       C  0.42476340  0.12380311  0.29958687    -0.04400
C1070       C  0.41538255  0.11923189  0.28941301     0.07800
C1071       C  0.40426498  0.11389257  0.29702779     0.01600
H1072       H  0.43480135  0.12863460  0.29775579     0.09200
H1073       H  0.39472550  0.10956119  0.29282537     0.08300
N1074       N  0.43337346  0.12663470  0.35387569    -0.35500
N1075       N  0.42484413  0.12465816  0.36472744    -0.27700
C1076       C  0.43214687  0.12577217  0.37680731    -0.02900
C1077       C  0.44591227  0.12870756  0.37345977     0.05700
C1078       C  0.44626378  0.12918288  0.35882538     0.03800
H1079       H  0.42774774  0.12449779  0.38725368     0.08900
H1080       H  0.45530244  0.13094917  0.35219762     0.07700
N1081       N  0.19262514  0.15053822  0.36944208    -0.26700
N1082       N  0.20538576  0.15501640  0.37207185    -0.34500
C1083       C  0.20518682  0.16906449  0.37347109     0.01700
C1084       C  0.19166156  0.17374755  0.37156209     0.07700
C1085       C  0.18394110  0.16174505  0.36892947    -0.05400
H1086       H  0.21428601  0.17538814  0.37561336     0.08300
H1087       H  0.17282138  0.16116174  0.36712165     0.09500
Cu1088     Cu  0.22277147  0.14222536  0.37341516     0.44200
Cu1089     Cu  0.18788411  0.12927721  0.36756291     0.42000
Cu1090     Cu  0.21832284  0.10534438  0.36830052     0.43900
N1091       N  0.23935836  0.12832832  0.37259057    -0.34100
N1092       N  0.23793488  0.11470271  0.37022159    -0.28300
C1093       C  0.25073953  0.10875145  0.36948272    -0.04400
C1094       C  0.26061642  0.11917518  0.37162558     0.07800
C1095       C  0.25298283  0.13142204  0.37358794     0.01600
H1096       H  0.25270129  0.09768050  0.36758675     0.09200
H1097       H  0.25702304  0.14189955  0.37527352     0.08300
N1098       N  0.19750431  0.09881956  0.36749512    -0.35500
N1099       N  0.18656935  0.10741513  0.36732331    -0.27700
C1100       C  0.17480705  0.09971614  0.36707999    -0.02900
C1101       C  0.17845975  0.08558490  0.36703733     0.05700
C1102       C  0.19293335  0.08544955  0.36729324     0.03800
H1103       H  0.16436820  0.10412483  0.36688746     0.08900
H1104       H  0.19968873  0.07627763  0.36740308     0.07700
N1105       N  0.20630715  0.36603247  0.15057371    -0.26700
N1106       N  0.21012198  0.36974939  0.16345384    -0.34500
C1107       C  0.22407273  0.37130187  0.16369396     0.01700
C1108       C  0.22933815  0.36821444  0.15040414     0.07700
C1109       C  0.21778333  0.36491059  0.14235997    -0.05400
H1110       H  0.23001818  0.37358786  0.17308517     0.08300
H1111       H  0.21775014  0.36151379  0.13145603     0.09500
Cu1112     Cu  0.19681600  0.37000115  0.18087575     0.44200
Cu1113     Cu  0.18583946  0.36139092  0.14494792     0.42000
Cu1114     Cu  0.16312330  0.35498826  0.17501378     0.43900
N1115       N  0.18311364  0.36508581  0.19720546    -0.34100
N1116       N  0.17097551  0.35890875  0.19509704    -0.28300
C1117       C  0.16514845  0.35588912  0.20769407    -0.04400
C1118       C  0.17400446  0.36050394  0.21825006     0.07800
C1119       C  0.18525961  0.36632179  0.21118118     0.01600
H1120       H  0.15521708  0.35070514  0.20905127     0.09200
H1121       H  0.19457005  0.37068376  0.21584798     0.08300
N1122       N  0.15681785  0.35333108  0.15406893    -0.35500
N1123       N  0.16491010  0.35589043  0.14303232    -0.27700
C1124       C  0.15735287  0.35435379  0.13115526    -0.02900
C1125       C  0.14386085  0.35061627  0.13492499     0.05700
C1126       C  0.14397515  0.35006611  0.14952446     0.03800
H1127       H  0.16137330  0.35593851  0.12059587     0.08900
H1128       H  0.13526747  0.34768678  0.15641529     0.07700
N1129       N  0.16688625  0.34050795  0.34207072    -0.26700
N1130       N  0.16242952  0.32771472  0.33894562    -0.34500
C1131       C  0.16013558  0.32680143  0.32499584     0.01700
C1132       C  0.16343101  0.33953979  0.31887447     0.07700
C1133       C  0.16770032  0.34800719  0.33001929    -0.05400
H1134       H  0.15690385  0.31730924  0.31961915     0.08300
H1135       H  0.17125921  0.35876992  0.32940104     0.09500
Cu1136     Cu  0.16159418  0.31110455  0.35300615     0.44200
Cu1137     Cu  0.17186216  0.34690160  0.36271317     0.42000
Cu1138     Cu  0.17694632  0.31752742  0.38653640     0.43900
N1139       N  0.16676782  0.29513208  0.36684922    -0.34100
N1140       N  0.17324980  0.29748363  0.37888308    -0.28300
C1141       C  0.17688291  0.28509058  0.38464645    -0.04400
C1142       C  0.17233653  0.27442345  0.37585722     0.07800
C1143       C  0.16593309  0.28116795  0.36468776     0.01600
H1144       H  0.18263667  0.28395556  0.39437217     0.09200
H1145       H  0.16171325  0.27633275  0.35529238     0.08300
N1146       N  0.17722864  0.33837892  0.39293537    -0.35500
N1147       N  0.17535665  0.34927356  0.38448965    -0.27700
C1148       C  0.17527027  0.36114134  0.39241231    -0.02900
C1149       C  0.17708784  0.35745331  0.40648059     0.05700
C1150       C  0.17830310  0.34294254  0.40631155     0.03800
H1151       H  0.17354693  0.37160962  0.38829934     0.08900
H1152       H  0.17951560  0.33609728  0.41532408     0.07700
C1153       C  0.54635133  0.13701256  0.44694978     0.80800
N1154       N  0.53379350  0.13689255  0.44020717    -0.77500
C1155       C  0.53325902  0.13737100  0.42589615     0.83300
N1156       N  0.54532727  0.13780839  0.41840095    -0.77400
C1157       C  0.55794087  0.13752896  0.42481097     0.83400
N1158       N  0.55845327  0.13718226  0.43918668    -0.79100
C1159       C  0.49157018  0.48832893  0.13066041     0.80800
N1160       N  0.48451658  0.50091349  0.12996861    -0.77500
C1161       C  0.47028034  0.50113888  0.13035205     0.83300
N1162       N  0.46333042  0.48885816  0.13145903    -0.77400
C1163       C  0.47004977  0.47632680  0.13195555     0.83400
N1164       N  0.48424278  0.47604172  0.13148947    -0.79100
C1165       C  0.17236969  0.44375505  0.49988857     0.80800
N1166       N  0.17256553  0.43619330  0.48761108    -0.77500
C1167       C  0.17411029  0.42196508  0.48776966     0.83300
N1168       N  0.17540739  0.41533316  0.50032199    -0.77400
C1169       C  0.17522021  0.42257300  0.51269981     0.83400
N1170       N  0.17371251  0.43688161  0.51248815    -0.79100
C1171       C  0.90134258  0.43712133  0.49843378     0.80800
N1172       N  0.90187788  0.42913152  0.51035674    -0.77500
C1173       C  0.90311795  0.41486607  0.50944840     0.83300
N1174       N  0.90371250  0.40865545  0.49652227    -0.77400
C1175       C  0.90303752  0.41640135  0.48452352     0.83400
N1176       N  0.90190617  0.43067229  0.48553637    -0.79100
C1177       C  0.53579215  0.85244093  0.44880856     0.80800
N1178       N  0.54823327  0.85288492  0.44173029    -0.77500
C1179       C  0.54862670  0.85250415  0.42737210     0.83300
N1180       N  0.53647189  0.85168940  0.42014563    -0.77400
C1181       C  0.52396833  0.85122175  0.42695193     0.83400
N1182       N  0.52366259  0.85160353  0.44133511    -0.79100
C1183       C  0.49197295  0.50437557  0.85203532     0.80800
N1184       N  0.48452898  0.51672036  0.85237632    -0.77500
C1185       C  0.47034129  0.51657027  0.85158508     0.83300
N1186       N  0.46375031  0.50408582  0.85044907    -0.77400
C1187       C  0.47081119  0.49171548  0.85026460     0.83400
N1188       N  0.48502435  0.49183406  0.85107938    -0.79100
C1189       C  0.03746654  0.62702008  0.94796726     0.80800
N1190       N  0.05009053  0.62781248  0.94125226    -0.77500
C1191       C  0.05077403  0.63020989  0.92714884     0.83300
N1192       N  0.03878826  0.63173875  0.91982497    -0.77400
C1193       C  0.02612275  0.63060015  0.92609703     0.83400
N1194       N  0.02542678  0.62829910  0.94030333    -0.79100
C1195       C  0.04329686  0.35463117  0.94761754     0.80800
N1196       N  0.05573540  0.35622759  0.94073152    -0.77500
C1197       C  0.05612953  0.35723043  0.92643902     0.83300
N1198       N  0.04406398  0.35648613  0.91910738    -0.77400
C1199       C  0.03161863  0.35476260  0.92570554     0.83400
N1200       N  0.03122514  0.35391057  0.94004561    -0.79100
C1201       C  0.98875217  0.98651418  0.36972175     0.80800
N1202       N  0.98176373  0.97400975  0.36933052    -0.77500
C1203       C  0.96754778  0.97378230  0.36911032     0.83300
N1204       N  0.96039977  0.98614818  0.36942384    -0.77400
C1205       C  0.96708416  0.99868991  0.36970731     0.83400
N1206       N  0.98132369  0.99886346  0.36980059    -0.79100
C1207       C  0.99033790  0.99224246  0.63139621     0.80800
N1208       N  0.98307704  0.97997756  0.63227201    -0.77500
C1209       C  0.96889747  0.98016343  0.63316554     0.83300
N1210       N  0.96203030  0.99270684  0.63318660    -0.77400
C1211       C  0.96905746  0.00502908  0.63219571     0.83400
N1212       N  0.98325154  0.00475492  0.63131048    -0.79100
C1213       C  0.40063533  0.94561061  0.00161078     0.80800
N1214       N  0.40060582  0.93901861  0.98877622    -0.77500
C1215       C  0.39844167  0.92493762  0.98788212     0.83300
N1216       N  0.39626881  0.91754940  0.99983098    -0.77400
C1217       C  0.39662735  0.92371062  0.01270003     0.83400
N1218       N  0.39888295  0.93785517  0.01364754    -0.79100
C1219       C  0.69631060  0.94180886  0.00020867     0.80800
N1220       N  0.69655778  0.93455691  0.98766488    -0.77500
C1221       C  0.69797996  0.92023765  0.98762453     0.83300
N1222       N  0.69917008  0.91341024  0.00006011    -0.77400
C1223       C  0.69850662  0.92030514  0.01254686     0.83400
N1224       N  0.69704528  0.93455399  0.01262106    -0.79100
C1225       C  0.05096663  0.34620009  0.05046742     0.80800
N1226       N  0.03878513  0.34610673  0.05798712    -0.77500
C1227       C  0.03900414  0.34500019  0.07229868     0.83300
N1228       N  0.05144330  0.34385588  0.07897915    -0.77400
C1229       C  0.06365915  0.34415953  0.07168690     0.83400
N1230       N  0.06337771  0.34538536  0.05740518    -0.79100
C1231       C  0.04533843  0.61968888  0.05113816     0.80800
N1232       N  0.03303635  0.62087591  0.05841630    -0.77500
C1233       C  0.03300740  0.62191677  0.07272416     0.83300
N1234       N  0.04530835  0.62169185  0.07967538    -0.77400
C1235       C  0.05766000  0.62032021  0.07275808     0.83400
N1236       N  0.05768260  0.61932735  0.05838232    -0.79100
C1237       C  0.09153132  0.99405073  0.36509453     0.80800
N1238       N  0.09853714  0.00655012  0.36595352    -0.77500
C1239       C  0.11268677  0.00684431  0.36455798     0.83300
N1240       N  0.11966384  0.99467499  0.36212517    -0.77400
C1241       C  0.11308561  0.98217679  0.36119207     0.83400
N1242       N  0.09890502  0.98179253  0.36280857    -0.79100
C1243       C  0.09262563  0.99889118  0.62945517     0.80800
N1244       N  0.09987726  0.98650818  0.62998861    -0.77500
C1245       C  0.11401895  0.98650710  0.63127404     0.83300
N1246       N  0.12084582  0.99896461  0.63203955    -0.77400
C1247       C  0.11380687  0.01138726  0.63139190     0.83400
N1248       N  0.09967496  0.01129905  0.63007070    -0.79100
C1249       C  0.40264199  0.04881510  0.99582741     0.80800
N1250       N  0.40284949  0.05621309  0.98351957    -0.77500
C1251       C  0.40296476  0.07054128  0.98369973     0.83300
N1252       N  0.40277836  0.07740189  0.99629817    -0.77400
C1253       C  0.40253759  0.07020991  0.00865682     0.83400
N1254       N  0.40250130  0.05588941  0.00837483    -0.79100
C1255       C  0.69213638  0.04561257  0.99535222     0.80800
N1256       N  0.69203288  0.05318391  0.00772470    -0.77500
C1257       C  0.69242836  0.06758159  0.00736670     0.83300
N1258       N  0.69287890  0.07415297  0.99471397    -0.77400
C1259       C  0.69268214  0.06688178  0.98241719     0.83400
N1260       N  0.69232180  0.05259243  0.98277864    -0.79100
C1261       C  0.54260834  0.85616600  0.55250522     0.80800
N1262       N  0.53026009  0.85557072  0.55983812    -0.77500
C1263       C  0.53016794  0.85695403  0.57415441     0.83300
N1264       N  0.54234573  0.85914282  0.58092532    -0.77400
C1265       C  0.55465514  0.85988003  0.57394339     0.83400
N1266       N  0.55482537  0.85823802  0.55965443    -0.79100
C1267       C  0.54074985  0.14368113  0.55031933     0.80800
N1268       N  0.55335669  0.14471351  0.55679398    -0.77500
C1269       C  0.55417889  0.14611684  0.57102961     0.83300
N1270       N  0.54223606  0.14645145  0.57881827    -0.77400
C1271       C  0.52955794  0.14514284  0.57259028     0.83400
N1272       N  0.52884788  0.14378821  0.55828783    -0.79100
C1273       C  0.59479156  0.49738905  0.85475065     0.80800
N1274       N  0.60162045  0.48471592  0.85476811    -0.77500
C1275       C  0.61579303  0.48408009  0.85521884     0.83300
N1276       N  0.62309062  0.49623339  0.85576832    -0.77400
C1277       C  0.61658956  0.50897425  0.85615667     0.83400
N1278       N  0.60234496  0.50956538  0.85555446    -0.79100
C1279       C  0.59415416  0.49318596  0.13500747     0.80800
N1280       N  0.60139400  0.48074552  0.13524612    -0.77500
C1281       C  0.61563824  0.48069588  0.13521524     0.83300
N1282       N  0.62252824  0.49316037  0.13486531    -0.77400
C1283       C  0.61549482  0.50561051  0.13459175     0.83400
N1284       N  0.60130107  0.50554952  0.13471319    -0.79100
C1285       C  0.89383735  0.54054829  0.49690710     0.80800
N1286       N  0.89277403  0.54728843  0.50964307    -0.77500
C1287       C  0.89072751  0.56149542  0.51022028     0.83300
N1288       N  0.88987559  0.56885090  0.49801787    -0.77400
C1289       C  0.89126224  0.56240517  0.48528961     0.83400
N1290       N  0.89321044  0.54821234  0.48476594    -0.79100
C1291       C  0.16997857  0.54748159  0.49987459     0.80800
N1292       N  0.17031266  0.55578826  0.51168192    -0.77500
C1293       C  0.17067990  0.57006176  0.51049425     0.83300
N1294       N  0.17084367  0.57589853  0.49748455    -0.77400
C1295       C  0.17049620  0.56791454  0.48561419     0.83400
N1296       N  0.16997663  0.55362617  0.48682615    -0.79100
C1297       C  0.69489138  0.98212010  0.00682857     0.16500
C1298       C  0.69478713  0.99577196  0.01269251    -0.32500
C1299       C  0.69358664  0.00728238  0.00345795     0.20900
C1300       C  0.69254113  0.00521992  0.98901944     0.03100
C1301       C  0.69263887  0.99157498  0.98315684    -0.22200
C1302       C  0.69385200  0.98007630  0.99238792     0.12300
S1303       S  0.69629531  0.96684142  0.01623405    -0.05900
C1304       C  0.69549952  0.95747937  0.00058376    -0.09300
C1305       C  0.69421309  0.96598687  0.98872769    -0.26000
S1306       S  0.69133072  0.02047570  0.97958004    -0.03100
C1307       C  0.69224279  0.02989805  0.99519820    -0.16600
C1308       C  0.69339071  0.02140294  0.00708563    -0.14600
H1309       H  0.69563730  0.99734716  0.02397178     0.20800
H1310       H  0.69184763  0.98999850  0.97187158     0.16800
H1311       H  0.69358344  0.96209023  0.97800196     0.19300
H1312       H  0.69417962  0.02532842  0.01778751     0.12700
C1313       C  0.40286645  0.98577241  0.00814463     0.16500
C1314       C  0.40306013  0.99949294  0.01375081    -0.32500
C1315       C  0.40299026  0.01081770  0.00422870     0.20900
C1316       C  0.40283337  0.00858303  0.98976995     0.03100
C1317       C  0.40274562  0.99488466  0.98417152    -0.22200
C1318       C  0.40273067  0.98358066  0.99368342     0.12300
S1319       S  0.40237652  0.97058978  0.01785332    -0.05900
C1320       C  0.40191163  0.96116614  0.00225262    -0.09300
C1321       C  0.40226440  0.96954002  0.99025473    -0.26000
S1322       S  0.40260506  0.02368199  0.97999592    -0.03100
C1323       C  0.40272050  0.03320335  0.99553698    -0.16600
C1324       C  0.40292694  0.02491406  0.00760048    -0.14600
H1325       H  0.40310193  0.00126883  0.02504445     0.20800
H1326       H  0.40254931  0.99311137  0.97287918     0.16800
H1327       H  0.40191113  0.96557852  0.97953229     0.19300
H1328       H  0.40300747  0.02898056  0.01829135     0.12700
C1329       C  0.03027530  0.98614782  0.63005620     0.16500
C1330       C  0.04392178  0.98062132  0.63017618    -0.32500
C1331       C  0.05506455  0.99013443  0.62919229     0.20900
C1332       C  0.05271188  0.00449606  0.62804412     0.03100
C1333       C  0.03907833  0.01000289  0.62782379    -0.22200
C1334       C  0.02794557  0.00051289  0.62891773     0.12300
S1335       S  0.01534781  0.97644683  0.63148117    -0.05900
C1336       C  0.00581303  0.99191053  0.63059544    -0.09300
C1337       C  0.01396436  0.00387940  0.62921428    -0.26000
S1338       S  0.06758717  0.01432131  0.62736914    -0.03100
C1339       C  0.07717059  0.99894887  0.62871953    -0.16600
C1340       C  0.06907434  0.98687634  0.62952067    -0.14600
H1341       H  0.04577424  0.96941230  0.63115919     0.20800
H1342       H  0.03722985  0.02122842  0.62701398     0.16800
H1343       H  0.00988688  0.01451312  0.62853872     0.19300
H1344       H  0.07320462  0.97629395  0.63054513     0.12700
C1345       C  0.02894863  0.98105888  0.36892537     0.16500
C1346       C  0.04263221  0.97560679  0.36804126    -0.32500
C1347       C  0.05377766  0.98518691  0.36764515     0.20900
C1348       C  0.05137513  0.99957587  0.36825651     0.03100
C1349       C  0.03768404  0.00503722  0.36918615    -0.22200
C1350       C  0.02652986  0.99544847  0.36943976     0.12300
S1351       S  0.01405912  0.97117610  0.36913125    -0.05900
C1352       C  0.00432752  0.98654632  0.36975019    -0.09300
C1353       C  0.01244706  0.99866893  0.36994575    -0.26000
S1354       S  0.06628425  0.00942309  0.36757514    -0.03100
C1355       C  0.07597509  0.99403054  0.36634815    -0.16600
C1356       C  0.06782613  0.98193981  0.36652541    -0.14600
H1357       H  0.04450139  0.96436247  0.36753923     0.20800
H1358       H  0.03580598  0.01628293  0.36955800     0.16800
H1359       H  0.00827867  0.00928660  0.37026385     0.19300
H1360       H  0.07194710  0.97131738  0.36584230     0.12700
C1361       C  0.05607130  0.34950098  0.01024959     0.16500
C1362       C  0.06138871  0.35064355  0.99649109    -0.32500
C1363       C  0.05180217  0.35169697  0.98540239     0.20900
C1364       C  0.03752771  0.35159542  0.98786228     0.03100
C1365       C  0.03219311  0.35050035  0.00165849    -0.22200
C1366       C  0.04180358  0.34945902  0.01277537     0.12300
S1367       S  0.06602373  0.34807475  0.02507437    -0.05900
C1368       C  0.05083556  0.34745771  0.03490013    -0.09300
C1369       C  0.03872586  0.34829615  0.02691478    -0.26000
S1370       S  0.02769088  0.35281327  0.97288029    -0.03100
C1371       C  0.04298844  0.35350465  0.96319815    -0.16600
C1372       C  0.05498952  0.35283258  0.97132486    -0.14600
H1373       H  0.07253301  0.35068599  0.99450992     0.20800
H1374       H  0.02105070  0.35043137  0.00363675     0.16800
H1375       H  0.02823253  0.34807344  0.03121496     0.19300
H1376       H  0.06553293  0.35306948  0.96714866     0.12700
C1377       C  0.05015848  0.61898244  0.01052851     0.16500
C1378       C  0.05530644  0.61889272  0.99661405    -0.32500
C1379       C  0.04577334  0.62123987  0.98562182     0.20900
C1380       C  0.03168613  0.62337252  0.98831194     0.03100
C1381       C  0.02650899  0.62332614  0.00223253    -0.22200
C1382       C  0.03608234  0.62116507  0.01324852     0.12300
S1383       S  0.06013062  0.61706689  0.02536754    -0.05900
C1384       C  0.04521740  0.61933959  0.03544342    -0.09300
C1385       C  0.03318001  0.62130306  0.02749008    -0.26000
S1386       S  0.02193536  0.62638082  0.97347730    -0.03100
C1387       C  0.03702516  0.62492144  0.96351218    -0.16600
C1388       C  0.04888161  0.62210401  0.97147171    -0.14600
H1389       H  0.06632209  0.61733448  0.99446129     0.20800
H1390       H  0.01553522  0.62514873  0.00440187     0.16800
H1391       H  0.02285740  0.62304801  0.03189949     0.19300
H1392       H  0.05931404  0.62092513  0.96714809     0.12700
C1393       C  0.53201080  0.51049282  0.85297062     0.16500
C1394       C  0.54562625  0.51603991  0.85315719    -0.32500
C1395       C  0.55694779  0.50649804  0.85347434     0.20900
C1396       C  0.55473885  0.49209497  0.85357175     0.03100
C1397       C  0.54116314  0.48656993  0.85337166    -0.22200
C1398       C  0.52987479  0.49608127  0.85306942     0.12300
S1399       S  0.51687338  0.52020862  0.85259777    -0.05900
C1400       C  0.50751652  0.50469345  0.85252392    -0.09300
C1401       C  0.51590741  0.49269632  0.85281176    -0.26000
S1402       S  0.56971219  0.48223415  0.85402005    -0.03100
C1403       C  0.57924134  0.49761106  0.85416213    -0.16600
C1404       C  0.57099486  0.50974512  0.85379830    -0.14600
H1405       H  0.54731469  0.52729551  0.85308241     0.20800
H1406       H  0.53947308  0.47531228  0.85346130     0.16800
H1407       H  0.51200391  0.48202366  0.85280985     0.19300
H1408       H  0.57503961  0.52036154  0.85382394     0.12700
C1409       C  0.52993722  0.85286115  0.48934807     0.16500
C1410       C  0.52452130  0.85283759  0.50318411    -0.32500
C1411       C  0.53401630  0.85356433  0.51444542     0.20900
C1412       C  0.54827505  0.85423625  0.51202434     0.03100
C1413       C  0.55368833  0.85419842  0.49820254    -0.22200
C1414       C  0.54419847  0.85352631  0.48695145     0.12300
S1415       S  0.52019999  0.85217519  0.47423993    -0.05900
C1416       C  0.53549575  0.85276297  0.46451781    -0.09300
C1417       C  0.54744217  0.85348330  0.47277668    -0.26000
S1418       S  0.55803214  0.85535243  0.52706724    -0.03100
C1419       C  0.54276453  0.85499926  0.53683539    -0.16600
C1420       C  0.53079495  0.85393670  0.52863847    -0.14600
H1421       H  0.51337811  0.85236344  0.50508807     0.20800
H1422       H  0.56482628  0.85476598  0.49629699     0.16800
H1423       H  0.55798652  0.85393736  0.46863248     0.19300
H1424       H  0.52026000  0.85366081  0.53282529     0.12700
C1425       C  0.89809091  0.47702256  0.50652441     0.16500
C1426       C  0.89668397  0.49043567  0.51274986    -0.32500
C1427       C  0.89663274  0.50222208  0.50379800     0.20900
C1428       C  0.89794790  0.50069168  0.48930131     0.03100
C1429       C  0.89936734  0.48729957  0.48309006    -0.22200
C1430       C  0.89938078  0.47552819  0.49202374     0.12300
S1431       S  0.89837327  0.46140306  0.51548980    -0.05900
C1432       C  0.90021271  0.45270532  0.49953340    -0.09300
C1433       C  0.90057580  0.46164391  0.48795459    -0.26000
S1434       S  0.89749526  0.51621755  0.48024024    -0.03100
C1435       C  0.89547106  0.52499201  0.49611600    -0.16600
C1436       C  0.89523953  0.51613714  0.50778136    -0.14600
H1437       H  0.89563559  0.49162776  0.52407213     0.20800
H1438       H  0.90036434  0.48610437  0.47176292     0.16800
H1439       H  0.90169261  0.45817788  0.47710582     0.19300
H1440       H  0.89398602  0.51967022  0.51859341     0.12700
C1441       C  0.17165680  0.50767012  0.50866373     0.16500
C1442       C  0.17334032  0.49437270  0.51497942    -0.32500
C1443       C  0.17152755  0.48234009  0.50647771     0.20900
C1444       C  0.16810897  0.48355266  0.49234096     0.03100
C1445       C  0.16636819  0.49682218  0.48605606    -0.22200
C1446       C  0.16830060  0.50883047  0.49450997     0.12300
S1447       S  0.17361074  0.52353619  0.51705500    -0.05900
C1448       C  0.17001221  0.53188280  0.50130110    -0.09300
C1449       C  0.16738747  0.52264922  0.49021982    -0.26000
S1450       S  0.16673135  0.46780712  0.48369647    -0.03100
C1451       C  0.17086700  0.45934047  0.49923270    -0.16600
C1452       C  0.17305083  0.46846526  0.51052695    -0.14600
H1453       H  0.17607915  0.49345172  0.52600813     0.20800
H1454       H  0.16378681  0.49774434  0.47498722     0.16800
H1455       H  0.16494705  0.52586835  0.47956178     0.19300
H1456       H  0.17588132  0.46515174  0.52105503     0.12700
C1457       C  0.53147665  0.48169080  0.13172546     0.16500
C1458       C  0.54502390  0.47588244  0.13193868    -0.32500
C1459       C  0.55633688  0.48515128  0.13329204     0.20900
C1460       C  0.55421618  0.49956053  0.13440556     0.03100
C1461       C  0.54067824  0.50536044  0.13421540    -0.22200
C1462       C  0.52937757  0.49610425  0.13281121     0.12300
S1463       S  0.51639543  0.47225710  0.13022823    -0.05900
C1464       C  0.50708197  0.48788225  0.13101842    -0.09300
C1465       C  0.51543408  0.49972648  0.13236746    -0.26000
S1466       S  0.56925994  0.50904515  0.13577392    -0.03100
C1467       C  0.57863161  0.49347113  0.13481052    -0.16600
C1468       C  0.57031222  0.48158034  0.13356472    -0.14600
H1469       H  0.54667237  0.46462691  0.13105739     0.20800
H1470       H  0.53903051  0.51662003  0.13506835     0.16800
H1471       H  0.51151643  0.51042173  0.13312757     0.19300
H1472       H  0.57427053  0.47090486  0.13273986     0.12700
C1473       C  0.55244188  0.13887837  0.48719814     0.16500
C1474       C  0.55797970  0.13974238  0.50084899    -0.32500
C1475       C  0.54857213  0.14060383  0.51224604     0.20900
C1476       C  0.53426092  0.14056572  0.51019661     0.03100
C1477       C  0.52870873  0.13968012  0.49652736    -0.22200
C1478       C  0.53813579  0.13885218  0.48510931     0.12300
S1479       S  0.56211712  0.13794832  0.47197702    -0.05900
C1480       C  0.54674333  0.13752709  0.46260043    -0.09300
C1481       C  0.53480752  0.13806293  0.47103814    -0.26000
S1482       S  0.52466871  0.14176529  0.52548081    -0.03100
C1483       C  0.54012303  0.14236834  0.53474226    -0.16600
C1484       C  0.55198235  0.14163582  0.52625380    -0.14600
H1485       H  0.56915396  0.13980568  0.50251617     0.20800
H1486       H  0.51753611  0.13969086  0.49485810     0.16800
H1487       H  0.52422437  0.13799362  0.46708452     0.19300
H1488       H  0.56259498  0.14187908  0.53012432     0.12700
C1489       C  0.17608469  0.37613587  0.44267632     0.16500
C1490       C  0.17550109  0.37945282  0.45709275    -0.32500
C1491       C  0.17525460  0.39372378  0.46093935     0.20900
C1492       C  0.17559098  0.40428562  0.45090399     0.03100
C1493       C  0.17620242  0.40095261  0.43642776    -0.22200
C1494       C  0.17640250  0.38662709  0.43255574     0.12300
S1495       S  0.17638473  0.35944651  0.43597608    -0.05900
C1496       C  0.17685904  0.36653907  0.41924986    -0.09300
C1497       C  0.17682486  0.38117771  0.41905633    -0.26000
S1498       S  0.17513764  0.42096744  0.45790106    -0.03100
C1499       C  0.17452716  0.41359809  0.47451999    -0.16600
C1500       C  0.17466760  0.39897148  0.47443133    -0.14600
H1501       H  0.17521881  0.37124432  0.46498792     0.20800
H1502       H  0.17645607  0.40915902  0.42853319     0.16800
H1503       H  0.17709151  0.38749569  0.40957805     0.19300
H1504       H  0.17434272  0.39246579  0.48378659     0.12700
C1505       C  0.10900910  0.34395998  0.11615461     0.16500
C1506       C  0.09500225  0.34148063  0.11293421    -0.32500
C1507       C  0.09089350  0.34287461  0.09885364     0.20900
C1508       C  0.10032094  0.34638910  0.08831862     0.03100
C1509       C  0.11443677  0.34878666  0.09153669    -0.22200
C1510       C  0.11853110  0.34757112  0.10573161     0.12300
S1511       S  0.11573564  0.34338238  0.13274082    -0.05900
C1512       C  0.13163515  0.34819716  0.12575134    -0.09300
C1513       C  0.13160460  0.34998121  0.11118380    -0.26000
S1514       S  0.09295090  0.34792033  0.07193838    -0.03100
C1515       C  0.07699953  0.34399697  0.07948903    -0.16600
C1516       C  0.07759038  0.34147457  0.09387867    -0.14600
H1517       H  0.08754269  0.33883587  0.12112649     0.20800
H1518       H  0.12183343  0.35171711  0.08339239     0.16800
H1519       H  0.14056016  0.35312120  0.10495481     0.19300
H1520       H  0.06866131  0.33900702  0.10046711     0.12700
C1521       C  0.16051009  0.34281302  0.27846192     0.16500
C1522       C  0.15780933  0.34082097  0.26404814    -0.32500
C1523       C  0.16454191  0.34971848  0.25440779     0.20900
C1524       C  0.17357552  0.36012853  0.25892634     0.03100
C1525       C  0.17604592  0.36230826  0.27335844    -0.22200
C1526       C  0.16931287  0.35341465  0.28300466     0.12300
S1527       S  0.15406255  0.33257848  0.29173150    -0.05900
C1528       C  0.16320314  0.34275006  0.30359972    -0.09300
C1529       C  0.17077036  0.35353841  0.29743389    -0.26000
S1530       S  0.18137432  0.36923912  0.24554742    -0.03100
C1531       C  0.17225626  0.35904695  0.23369990    -0.16600
C1532       C  0.16361420  0.34915520  0.23994969    -0.14600
H1533       H  0.15096885  0.33251179  0.26048591     0.20800
H1534       H  0.18313371  0.37041286  0.27690313     0.16800
H1535       H  0.17735451  0.36079892  0.30314591     0.19300
H1536       H  0.15729200  0.34167255  0.23422239     0.12700
C1537       C  0.15884144  0.05039150  0.36532545     0.16500
C1538       C  0.15509695  0.03623079  0.36422415    -0.32500
C1539       C  0.14088925  0.03293596  0.36511816     0.20900
C1540       C  0.13072626  0.04320585  0.36705686     0.03100
C1541       C  0.13449007  0.05747567  0.36813746    -0.22200
C1542       C  0.14879082  0.06080606  0.36719614     0.12300
S1543       S  0.17557633  0.05638028  0.36453306    -0.05900
C1544       C  0.16912178  0.07322076  0.36666815    -0.09300
C1545       C  0.15464786  0.07398291  0.36793701    -0.26000
S1546       S  0.11401567  0.03669034  0.36783184    -0.03100
C1547       C  0.12091714  0.02000033  0.36544358    -0.16600
C1548       C  0.13537568  0.01975160  0.36419886    -0.14600
H1549       H  0.16295038  0.02809062  0.36271858     0.20800
H1550       H  0.12663836  0.06561421  0.36962201     0.16800
H1551       H  0.14872124  0.08363026  0.36938236     0.19300
H1552       H  0.14164019  0.01032761  0.36263657     0.12700
C1553       C  0.18470115  0.23641708  0.38124592     0.16500
C1554       C  0.19228959  0.22419378  0.38432670    -0.32500
C1555       C  0.18766820  0.21152167  0.37843710     0.20900
C1556       C  0.17581971  0.21091605  0.37012539     0.03100
C1557       C  0.16823739  0.22317011  0.36700559    -0.22200
C1558       C  0.17306263  0.23592088  0.37262245     0.12300
S1559       S  0.18895533  0.25288897  0.38692688    -0.05900
C1560       C  0.17515237  0.25925543  0.37724423    -0.09300
C1561       C  0.16757059  0.24903408  0.37023073    -0.26000
S1562       S  0.17201073  0.19443153  0.36400757    -0.03100
C1563       C  0.18676274  0.18842939  0.37243821    -0.16600
C1564       C  0.19402060  0.19868454  0.37972636    -0.14600
H1565       H  0.20155725  0.22458121  0.39081907     0.20800
H1566       H  0.15913291  0.22282249  0.36028208     0.16800
H1567       H  0.15863196  0.25110526  0.36358508     0.19300
H1568       H  0.20350679  0.19686431  0.38563333     0.12700
C1569       C  0.47449467  0.13091077  0.40212622     0.16500
C1570       C  0.48288874  0.12982026  0.41425923    -0.32500
C1571       C  0.49692620  0.13408572  0.41315430     0.20900
C1572       C  0.50219650  0.13930322  0.40057345     0.03100
C1573       C  0.49381515  0.14054085  0.38860981    -0.22200
C1574       C  0.47995188  0.13612985  0.38964274     0.12300
S1575       S  0.45739732  0.12580587  0.40082134    -0.05900
C1576       C  0.45780471  0.13058422  0.38322848    -0.09300
C1577       C  0.47050353  0.13597977  0.37885654    -0.26000
S1578       S  0.51947847  0.14324985  0.40087371    -0.03100
C1579       C  0.51988988  0.13780772  0.41817456    -0.16600
C1580       C  0.50706929  0.13332229  0.42342911    -0.14600
H1581       H  0.47875705  0.12558575  0.42399998     0.20800
H1582       H  0.49803743  0.14447269  0.37877177     0.16800
H1583       H  0.47280715  0.13951254  0.36825839     0.19300
H1584       H  0.50538665  0.12929221  0.43396730     0.12700
C1585       C  0.32153344  0.10382512  0.36155577     0.16500
C1586       C  0.30756610  0.09982109  0.36001040    -0.32500
C1587       C  0.29726148  0.10858085  0.36597232     0.20900
C1588       C  0.30071071  0.12080173  0.37316613     0.03100
C1589       C  0.31470800  0.12461931  0.37503550    -0.22200
C1590       C  0.32502329  0.11584346  0.36907599     0.12300
S1591       S  0.33541607  0.09534692  0.35392526    -0.05900
C1592       C  0.34608016  0.10800868  0.36107335    -0.09300
C1593       C  0.33915951  0.11815665  0.36905731    -0.26000
S1594       S  0.28664188  0.13050218  0.37872916    -0.03100
C1595       C  0.27598403  0.11784966  0.37147586    -0.16600
C1596       C  0.28309458  0.10674650  0.36511199    -0.14600
H1597       H  0.30482617  0.09047516  0.35406877     0.20800
H1598       H  0.31742674  0.13421129  0.38057861     0.16800
H1599       H  0.34411732  0.12717471  0.37389314     0.19300
H1600       H  0.27817020  0.09800107  0.35976896     0.12700
C1601       C  0.40341502  0.09569404  0.04027391     0.16500
C1602       C  0.40407148  0.10758844  0.04898833    -0.32500
C1603       C  0.40549386  0.10546401  0.06352243     0.20900
C1604       C  0.40614747  0.09208804  0.06925241     0.03100
C1605       C  0.40535876  0.08009777  0.06049656    -0.22200
C1606       C  0.40402969  0.08223447  0.04585063     0.12300
S1607       S  0.40223392  0.09627334  0.02235657    -0.05900
C1608       C  0.40264761  0.07813813  0.02214073    -0.09300
C1609       C  0.40351942  0.07205546  0.03545431    -0.26000
S1610       S  0.40816877  0.09202193  0.08724828    -0.03100
C1611       C  0.40810479  0.11021444  0.08694788    -0.16600
C1612       C  0.40657843  0.11581266  0.07353331    -0.14600
H1613       H  0.40367009  0.11808845  0.04459418     0.20800
H1614       H  0.40593281  0.06960136  0.06487212     0.16800
H1615       H  0.40400967  0.06083992  0.03739824     0.19300
H1616       H  0.40637003  0.12693102  0.07111029     0.12700
C1617       C  0.42814777  0.13272414  0.22782900     0.16500
C1618       C  0.43192126  0.13466737  0.24199386    -0.32500
C1619       C  0.42442739  0.12728251  0.25232218     0.20900
C1620       C  0.41365216  0.11832493  0.24868153     0.03100
C1621       C  0.41007675  0.11612847  0.23447116    -0.22200
C1622       C  0.41758206  0.12353046  0.22412674     0.12300
S1623       S  0.43522591  0.14161861  0.21393807    -0.05900
C1624       C  0.42399800  0.13276844  0.20291406    -0.09300
C1625       C  0.41529489  0.12333614  0.20977810    -0.26000
S1626       S  0.40530752  0.11101006  0.26282611    -0.03100
C1627       C  0.41652686  0.11999241  0.27381082    -0.16600
C1628       C  0.42621928  0.12817988  0.26669801    -0.14600
H1629       H  0.44013890  0.14190283  0.24486702     0.20800
H1630       H  0.40160832  0.10918816  0.23162695     0.16800
H1631       H  0.40729699  0.11718672  0.20464005     0.19300
H1632       H  0.43394762  0.13472550  0.27176533     0.12700
C1633       C  0.44325789  0.41813723  0.13370478     0.16500
C1634       C  0.45593458  0.42555405  0.13288288    -0.32500
C1635       C  0.45528901  0.44036754  0.13352887     0.20900
C1636       C  0.44258434  0.44731061  0.13504537     0.03100
C1637       C  0.43004119  0.43994815  0.13595922    -0.22200
C1638       C  0.43067151  0.42527691  0.13518258     0.12300
S1639       S  0.44149476  0.40022082  0.13275792    -0.05900
C1640       C  0.42362938  0.40252374  0.13426680    -0.09300
C1641       C  0.41945380  0.41645167  0.13551985    -0.26000
S1642       S  0.44362574  0.46511861  0.13527274    -0.03100
C1643       C  0.46145332  0.46351000  0.13321877    -0.16600
C1644       C  0.46627758  0.44967026  0.13252291    -0.14600
H1645       H  0.46579293  0.42005388  0.13162259     0.20800
H1646       H  0.42016043  0.44545576  0.13703501     0.16800
H1647       H  0.40874822  0.42002050  0.13654534     0.19300
H1648       H  0.47710253  0.44661198  0.13112602     0.12700
C1649       C  0.40215370  0.24053676  0.12186274     0.16500
C1650       C  0.39616359  0.25289402  0.11653553    -0.32500
C1651       C  0.39988705  0.26566784  0.12288745     0.20900
C1652       C  0.40944403  0.26619579  0.13381323     0.03100
C1653       C  0.41539592  0.25382103  0.13918426    -0.22200
C1654       C  0.41139861  0.24100338  0.13305829     0.12300
S1655       S  0.39867211  0.22396658  0.11586953    -0.05900
C1656       C  0.40952292  0.21753826  0.12880910    -0.09300
C1657       C  0.41559990  0.22782476  0.13714647    -0.26000
S1658       S  0.41255108  0.28277399  0.14006591    -0.03100
C1659       C  0.40049581  0.28895845  0.12814233    -0.16600
C1660       C  0.39464148  0.27869222  0.11966520    -0.14600
H1661       H  0.38872536  0.25254665  0.10796914     0.20800
H1662       H  0.42264647  0.25414933  0.14791172     0.16800
H1663       H  0.42269219  0.22578493  0.14577191     0.19300
H1664       H  0.38685022  0.28065254  0.11165340     0.12700
C1665       C  0.26658029  0.36067996  0.13685666     0.16500
C1666       C  0.27861661  0.35525067  0.13024659    -0.32500
C1667       C  0.29158082  0.36046410  0.13462094     0.20900
C1668       C  0.29250201  0.37081861  0.14492285     0.03100
C1669       C  0.28048876  0.37609925  0.15166347    -0.22200
C1670       C  0.26755384  0.37070297  0.14747579     0.12300
S1671       S  0.24987618  0.35573184  0.13311731    -0.05900
C1672       C  0.24417154  0.36700575  0.14626148    -0.09300
C1673       C  0.25474336  0.37426768  0.15300644    -0.26000
S1674       S  0.30914610  0.37604516  0.14846916    -0.03100
C1675       C  0.31499371  0.36389547  0.13621401    -0.16600
C1676       C  0.30448057  0.35633127  0.12969059    -0.14600
H1677       H  0.27791122  0.34725645  0.12210166     0.20800
H1678       H  0.28119958  0.38402665  0.15987279     0.16800
H1679       H  0.25313855  0.38176347  0.16151285     0.19300
H1680       H  0.30618316  0.34830523  0.12170516     0.12700
C1681       C  0.94001921  0.02887939  0.37021954     0.16500
C1682       C  0.92771844  0.03692505  0.37073186    -0.32500
C1683       C  0.92874894  0.05141302  0.36826444     0.20900
C1684       C  0.94146852  0.05770151  0.36546251     0.03100
C1685       C  0.95385004  0.04961999  0.36499986    -0.22200
C1686       C  0.95282215  0.03503958  0.36744849     0.12300
S1687       S  0.94072958  0.01112297  0.37255610    -0.05900
C1688       C  0.95853828  0.01177892  0.36981259    -0.09300
C1689       C  0.96355552  0.02525805  0.36727372    -0.26000
S1690       S  0.94028594  0.07549666  0.36264865    -0.03100
C1691       C  0.92245694  0.07436842  0.36519888    -0.16600
C1692       C  0.91787270  0.06085561  0.36813396    -0.14600
H1693       H  0.91773571  0.03206795  0.37285023     0.20800
H1694       H  0.96381105  0.05446047  0.36275089     0.16800
H1695       H  0.97438277  0.02772412  0.36515792     0.19300
H1696       H  0.90711507  0.05800603  0.37005718     0.12700
C1697       C  0.90529283  0.37446369  0.43568904     0.16500
C1698       C  0.90558714  0.37663745  0.45032346    -0.32500
C1699       C  0.90455444  0.39051207  0.45534048     0.20900
C1700       C  0.90323194  0.40179384  0.44621638     0.03100
C1701       C  0.90296545  0.39961151  0.43149291    -0.22200
C1702       C  0.90407463  0.38566415  0.42643683     0.12300
S1703       S  0.90637955  0.35838140  0.42770587    -0.05900
C1704       C  0.90532319  0.36665089  0.41156404    -0.09300
C1705       C  0.90413734  0.38124637  0.41251914    -0.26000
S1706       S  0.90204730  0.41780831  0.45462634    -0.03100
C1707       C  0.90337861  0.40916612  0.47058508    -0.16600
C1708       C  0.90466303  0.39464375  0.46923334    -0.14600
H1709       H  0.90658502  0.36785905  0.45751233     0.20800
H1710       H  0.90196164  0.40838726  0.42430783     0.16800
H1711       H  0.90330213  0.38822660  0.40355868     0.19300
H1712       H  0.90559885  0.38741851  0.47799422     0.12700
C1713       C  0.89872277  0.23781315  0.37096394     0.16500
C1714       C  0.89341502  0.22516668  0.37624746    -0.32500
C1715       C  0.89680042  0.21272101  0.36895673     0.20900
C1716       C  0.90530839  0.21278358  0.35707003     0.03100
C1717       C  0.91046181  0.22546883  0.35166803    -0.22200
C1718       C  0.90688756  0.23795409  0.35884016     0.12300
S1719       S  0.89578931  0.25403133  0.37827551    -0.05900
C1720       C  0.90539150  0.26115833  0.36467321    -0.09300
C1721       C  0.91066713  0.25133809  0.35512363    -0.26000
S1722       S  0.90845838  0.19646282  0.34999084    -0.03100
C1723       C  0.89790998  0.18957483  0.36298016    -0.16600
C1724       C  0.89238653  0.19945560  0.37228198    -0.14600
H1725       H  0.88686620  0.22503837  0.38560534     0.20800
H1726       H  0.91693264  0.22560925  0.34225600     0.16800
H1727       H  0.91695813  0.25383659  0.34595004     0.19300
H1728       H  0.88551681  0.19703194  0.38104964     0.12700
C1729       C  0.98033768  0.35128398  0.09704440     0.16500
C1730       C  0.98850526  0.35078216  0.08466481    -0.32500
C1731       C  0.00298662  0.34872949  0.08612292     0.20900
C1732       C  0.00900162  0.34731473  0.09931982     0.03100
C1733       C  0.00088261  0.34790377  0.11163620    -0.22200
C1734       C  0.98646445  0.34988665  0.11017762     0.12300
S1735       S  0.96256184  0.35330861  0.09769258    -0.05900
C1736       C  0.96344323  0.35217689  0.11585139    -0.09300
C1737       C  0.97688995  0.35045042  0.12095428    -0.26000
S1738       S  0.02662871  0.34489649  0.09901563    -0.03100
C1739       C  0.02607405  0.34583806  0.08086387    -0.16600
C1740       C  0.01276279  0.34787837  0.07543539    -0.14600
H1741       H  0.98378114  0.35184964  0.07437295     0.20800
H1742       H  0.00559983  0.34677730  0.12192627     0.16800
H1743       H  0.97957550  0.34945230  0.13197814     0.19300
H1744       H  0.01038717  0.34880367  0.06432206     0.12700
C1745       C  0.91568139  0.36327034  0.24854422     0.16500
C1746       C  0.91137361  0.36554778  0.26255417    -0.32500
C1747       C  0.91842390  0.35821260  0.27321335     0.20900
C1748       C  0.92933812  0.34905347  0.27002693     0.03100
C1749       C  0.93391531  0.34708895  0.25604514    -0.22200
C1750       C  0.92679101  0.35435505  0.24537791     0.12300
S1751       S  0.90761721  0.37016087  0.23410140    -0.05900
C1752       C  0.91933016  0.36099410  0.22360613    -0.09300
C1753       C  0.92906780  0.35315407  0.23107325    -0.26000
S1754       S  0.93554491  0.34001255  0.28422918    -0.03100
C1755       C  0.92343290  0.34876158  0.29463166    -0.16600
C1756       C  0.91514458  0.35827561  0.28737250    -0.14600
H1757       H  0.90257585  0.37237850  0.26499737     0.20800
H1758       H  0.94233435  0.33980801  0.25354290     0.16800
H1759       H  0.93700499  0.34646964  0.22630040     0.19300
H1760       H  0.90663158  0.36427021  0.29205212     0.12700
C1761       C  0.61565119  0.13558122  0.39635981     0.16500
C1762       C  0.60829605  0.13522854  0.40931155    -0.32500
C1763       C  0.59361705  0.13653872  0.40894528     0.20900
C1764       C  0.58672769  0.13815007  0.39622259     0.03100
C1765       C  0.59403563  0.13853293  0.38338622    -0.22200
C1766       C  0.60859373  0.13718923  0.38374502     0.12300
S1767       S  0.63340414  0.13398942  0.39427871    -0.05900
C1768       C  0.63121320  0.13543873  0.37622198    -0.09300
C1769       C  0.61738617  0.13712925  0.37224578    -0.26000
S1770       S  0.56905814  0.13937825  0.39768432    -0.03100
C1771       C  0.57064940  0.13770305  0.41572642    -0.16600
C1772       C  0.58440835  0.13630244  0.42026822    -0.14600
H1773       H  0.61375332  0.13391498  0.41919195     0.20800
H1774       H  0.58856878  0.13973932  0.37349369     0.16800
H1775       H  0.61386770  0.13817836  0.36147080     0.19300
H1776       H  0.58748154  0.13504277  0.43116416     0.12700
C1777       C  0.79113256  0.10824005  0.35245559     0.16500
C1778       C  0.77849393  0.10260871  0.34759516    -0.32500
C1779       C  0.76616078  0.11024761  0.35047030     0.20900
C1780       C  0.76640816  0.12276640  0.35804244     0.03100
C1781       C  0.77900697  0.12845091  0.36269860    -0.22200
C1782       C  0.79130052  0.12096299  0.35965932     0.12300
S1783       S  0.80731333  0.10074805  0.35018430    -0.05900
C1784       C  0.81431242  0.11509439  0.35878417    -0.09300
C1785       C  0.80450958  0.12497267  0.36320850    -0.26000
S1786       S  0.75043058  0.13035384  0.36076599    -0.03100
C1787       C  0.74326635  0.11674984  0.35129041    -0.16600
C1788       C  0.75285865  0.10681041  0.34640455    -0.14600
H1789       H  0.77828728  0.09277127  0.34179225     0.20800
H1790       H  0.77922468  0.13834058  0.36842396     0.16800
H1791       H  0.80688600  0.13460566  0.36882061     0.19300
H1792       H  0.75022970  0.09760758  0.34021164     0.12700
C1793       C  0.66087151  0.43535095  0.13273863     0.16500
C1794       C  0.65757046  0.44973740  0.13311391    -0.32500
C1795       C  0.64345945  0.45361322  0.13417854     0.20900
C1796       C  0.63300455  0.44363514  0.13493985     0.03100
C1797       C  0.63632599  0.42914800  0.13462515    -0.22200
C1798       C  0.65052247  0.42524347  0.13343578     0.12300
S1799       S  0.67739860  0.42871145  0.13127361    -0.05900
C1800       C  0.67049754  0.41199104  0.13150087    -0.09300
C1801       C  0.65599240  0.41176122  0.13270014    -0.26000
S1802       S  0.61648615  0.45076149  0.13593586    -0.03100
C1803       C  0.62381426  0.46733312  0.13521765    -0.16600
C1804       C  0.63829736  0.46710996  0.13437618    -0.14600
H1805       H  0.66568237  0.45760717  0.13247935     0.20800
H1806       H  0.62820930  0.42128285  0.13514640     0.16800
H1807       H  0.64979162  0.40228156  0.13302885     0.19300
H1808       H  0.64478074  0.47639180  0.13376399     0.12700
C1809       C  0.80111669  0.37391581  0.13434248     0.16500
C1810       C  0.81368323  0.37806604  0.14059367    -0.32500
C1811       C  0.82595009  0.37095003  0.13648631     0.20900
C1812       C  0.82580066  0.36038127  0.12635965     0.03100
C1813       C  0.81321448  0.35616267  0.12018016    -0.22200
C1814       C  0.80089926  0.36307364  0.12451493     0.12300
S1815       S  0.78504515  0.38095196  0.13817429    -0.05900
C1816       C  0.77787428  0.36889133  0.12671572    -0.09300
C1817       C  0.78759649  0.36010412  0.12016243    -0.26000
S1818       S  0.84185340  0.35313590  0.12278578    -0.03100
C1819       C  0.84877375  0.36419307  0.13535693    -0.16600
C1820       C  0.83907054  0.37309110  0.14176010    -0.14600
H1821       H  0.81386544  0.38635509  0.14848433     0.20800
H1822       H  0.81300106  0.34771274  0.11246321     0.16800
H1823       H  0.78506145  0.35186067  0.11268862     0.19300
H1824       H  0.84148670  0.38070269  0.14992275     0.12700
C1825       C  0.69218029  0.09631870  0.03630376     0.16500
C1826       C  0.69254402  0.10918194  0.04365429    -0.32500
C1827       C  0.68855683  0.10923897  0.05792430     0.20900
C1828       C  0.68446035  0.09697711  0.06460119     0.03100
C1829       C  0.68407640  0.08406931  0.05721222    -0.22200
C1830       C  0.68803851  0.08400676  0.04287620     0.12300
S1831       S  0.69623795  0.09432214  0.01889681    -0.05900
C1832       C  0.69228094  0.07664386  0.02021864    -0.09300
C1833       C  0.68814332  0.07260586  0.03370617    -0.26000
S1834       S  0.68018842  0.09929853  0.08202934    -0.03100
C1835       C  0.68389264  0.11699899  0.08033257    -0.16600
C1836       C  0.68818344  0.12074538  0.06682975    -0.14600
H1837       H  0.69572709  0.11876660  0.03842946     0.20800
H1838       H  0.68079148  0.07450464  0.06241086     0.16800
H1839       H  0.68500000  0.06205628  0.03654651     0.19300
H1840       H  0.69103336  0.13129516  0.06370235     0.12700
C1841       C  0.66192693  0.13783947  0.22000618     0.16500
C1842       C  0.65785382  0.13955844  0.23414740    -0.32500
C1843       C  0.66500434  0.13175213  0.24437316     0.20900
C1844       C  0.67573643  0.12257740  0.24066793     0.03100
C1845       C  0.67964273  0.12063514  0.22645468    -0.22200
C1846       C  0.67248989  0.12849671  0.21620119     0.12300
S1847       S  0.65521897  0.14721614  0.20630009    -0.05900
C1848       C  0.66666905  0.13847660  0.19518133    -0.09300
C1849       C  0.67513297  0.12865573  0.20188253    -0.26000
S1850       S  0.68361807  0.11472877  0.25476429    -0.03100
C1851       C  0.67227137  0.12383022  0.26577767    -0.16600
C1852       C  0.66288310  0.13242195  0.25872029    -0.14600
H1853       H  0.64966241  0.14694466  0.23709099     0.20800
H1854       H  0.68809931  0.11354733  0.22355158     0.16800
H1855       H  0.68319954  0.12246650  0.19667890     0.19300
H1856       H  0.65515725  0.13911974  0.26381757     0.12700
C1857       C  0.67721216  0.25121699  0.12877452     0.16500
C1858       C  0.67598494  0.26546878  0.13268477    -0.32500
C1859       C  0.68345949  0.27539805  0.12474506     0.20900
C1860       C  0.69190507  0.27126194  0.11352210     0.03100
C1861       C  0.69294112  0.25706336  0.10947853    -0.22200
C1862       C  0.68537748  0.24716683  0.11732134     0.12300
S1863       S  0.66940391  0.23749142  0.13730010    -0.05900
C1864       C  0.67704671  0.22616241  0.12517895    -0.09300
C1865       C  0.68522441  0.23285269  0.11513305    -0.26000
S1866       S  0.70084566  0.28470867  0.10579202    -0.03100
C1867       C  0.69294146  0.29614002  0.11758815    -0.16600
C1868       C  0.68385474  0.28972282  0.12700451    -0.14600
H1869       H  0.66959522  0.26866276  0.14162677     0.20800
H1870       H  0.69951921  0.25384053  0.10068477     0.16800
H1871       H  0.69100513  0.22751142  0.10681622     0.19300
H1872       H  0.67823658  0.29517500  0.13536320     0.12700
C1873       C  0.39324855  0.89429860  0.04015263     0.16500
C1874       C  0.39248894  0.88110888  0.04666170    -0.32500
C1875       C  0.39603820  0.88028262  0.06093989     0.20900
C1876       C  0.39981091  0.89215510  0.06852684     0.03100
C1877       C  0.40041983  0.90544177  0.06202286    -0.22200
C1878       C  0.39720911  0.90621826  0.04758012     0.12300
S1879       S  0.39051750  0.89701518  0.02269016    -0.05900
C1880       C  0.39504857  0.91441788  0.02511416    -0.09300
C1881       C  0.39817990  0.91790506  0.03899515    -0.26000
S1882       S  0.40421816  0.88874887  0.08563702    -0.03100
C1883       C  0.40128702  0.87110312  0.08241569    -0.16600
C1884       C  0.39684823  0.86820402  0.06881614    -0.14600
H1885       H  0.38970479  0.87179587  0.04071198     0.20800
H1886       H  0.40367839  0.91466656  0.06785346     0.16800
H1887       H  0.40156776  0.92819288  0.04248251     0.19300
H1888       H  0.39461647  0.85778782  0.06478342     0.12700
C1889       C  0.48779727  0.84999785  0.40874408     0.16500
C1890       C  0.47355046  0.84998623  0.40508389    -0.32500
C1891       C  0.47014645  0.85071470  0.39064311     0.20900
C1892       C  0.48049972  0.85125948  0.38038558     0.03100
C1893       C  0.49464122  0.85114195  0.38401849    -0.22200
C1894       C  0.49801587  0.85056973  0.39836646     0.12300
S1895       S  0.49433233  0.84975889  0.42559775    -0.05900
C1896       C  0.51097212  0.85055317  0.41849300    -0.09300
C1897       C  0.51120913  0.85082628  0.40384577    -0.26000
S1898       S  0.47447546  0.85232517  0.36354095    -0.03100
C1899       C  0.45768728  0.85210180  0.37018043    -0.16600
C1900       C  0.45696934  0.85119449  0.38483147    -0.14600
H1901       H  0.46548549  0.84963038  0.41313179     0.20800
H1902       H  0.50270563  0.85167361  0.37597569     0.16800
H1903       H  0.52060345  0.85141017  0.39745724     0.19300
H1904       H  0.44736457  0.85095353  0.39090141     0.12700
C1905       C  0.43127186  0.84324242  0.21673197     0.16500
C1906       C  0.43382890  0.84118692  0.23112926    -0.32500
C1907       C  0.42776899  0.85075251  0.24070580     0.20900
C1908       C  0.41956987  0.86191160  0.23615273     0.03100
C1909       C  0.41733074  0.86418904  0.22172579    -0.22200
C1910       C  0.42331557  0.85456150  0.21215127     0.12300
S1911       S  0.43675446  0.83218313  0.20356180    -0.05900
C1912       C  0.42830468  0.84293822  0.19169904    -0.09300
C1913       C  0.42170176  0.85453223  0.19777437    -0.26000
S1914       S  0.41213151  0.87157447  0.24947970    -0.03100
C1915       C  0.42025172  0.86053994  0.26130844    -0.16600
C1916       C  0.42838657  0.85005322  0.25514039    -0.14600
H1917       H  0.43993176  0.83227780  0.23473516     0.20800
H1918       H  0.41084281  0.87282910  0.21814333     0.16800
H1919       H  0.41564563  0.86227549  0.19206041     0.19300
H1920       H  0.43392917  0.84195863  0.26090440     0.12700
C1921       C  0.14286312  0.92513508  0.35586586     0.16500
C1922       C  0.13006261  0.93204127  0.35865312    -0.32500
C1923       C  0.12958889  0.94679466  0.35733966     0.20900
C1924       C  0.14138186  0.95419265  0.35331616     0.03100
C1925       C  0.15411087  0.94731962  0.35050388    -0.22200
C1926       C  0.15460717  0.93265197  0.35195462     0.12300
S1927       S  0.14572126  0.90738557  0.35707345    -0.05900
C1928       C  0.16296384  0.91011743  0.35242331    -0.09300
C1929       C  0.16615550  0.92414435  0.35001287    -0.26000
S1930       S  0.13904896  0.97192089  0.35272419    -0.03100
C1931       C  0.12194579  0.96962875  0.35810243    -0.16600
C1932       C  0.11829816  0.95561096  0.36004176    -0.14600
H1933       H  0.12093027  0.92618185  0.36186186     0.20800
H1934       H  0.16330145  0.95320035  0.34750724     0.16800
H1935       H  0.17637148  0.92794564  0.34700338     0.19300
H1936       H  0.10815993  0.95210630  0.36364117     0.12700
C1937       C  0.29581713  0.87273948  0.34457406     0.16500
C1938       C  0.30865203  0.87708750  0.33893430    -0.32500
C1939       C  0.32076623  0.86999029  0.34333106     0.20900
C1940       C  0.32020922  0.85925726  0.35317987     0.03100
C1941       C  0.30734662  0.85481906  0.35873720    -0.22200
C1942       C  0.29518352  0.86170174  0.35407500     0.12300
S1943       S  0.27990914  0.87979627  0.34033383    -0.05900
C1944       C  0.27223061  0.86747629  0.35113362    -0.09300
C1945       C  0.28166876  0.85856058  0.35778333    -0.26000
S1946       S  0.33616681  0.85213391  0.35722581    -0.03100
C1947       C  0.34360883  0.86346037  0.34520555    -0.16600
C1948       C  0.33412107  0.87234861  0.33863602    -0.14600
H1949       H  0.30915760  0.88552059  0.33129100     0.20800
H1950       H  0.30682382  0.84624958  0.36622061     0.16800
H1951       H  0.27878817  0.85016249  0.36489975     0.19300
H1952       H  0.33685400  0.88013648  0.33079140     0.12700
C1953       C  0.44324259  0.55914749  0.12240413     0.16500
C1954       C  0.45576670  0.55127719  0.12158267    -0.32500
C1955       C  0.45536369  0.53701119  0.12560211     0.20900
C1956       C  0.44298705  0.53098249  0.13013414     0.03100
C1957       C  0.43055417  0.53877891  0.13089381    -0.22200
C1958       C  0.43096915  0.55294477  0.12693939     0.12300
S1959       S  0.44139327  0.57664612  0.11838323    -0.05900
C1960       C  0.42391584  0.57551810  0.12289547    -0.09300
C1961       C  0.41990557  0.56218765  0.12716936    -0.26000
S1962       S  0.44430726  0.51366951  0.13434073    -0.03100
C1963       C  0.46180775  0.51425193  0.12997578    -0.16600
C1964       C  0.46631375  0.52742701  0.12554671    -0.14600
H1965       H  0.46538143  0.55606787  0.11802412     0.20800
H1966       H  0.42093409  0.53398383  0.13444285     0.16800
H1967       H  0.40946679  0.55939560  0.13051647     0.19300
H1968       H  0.47686328  0.52977197  0.12218773     0.12700
C1969       C  0.40213436  0.71503730  0.10551568     0.16500
C1970       C  0.40060368  0.72932429  0.10207679    -0.32500
C1971       C  0.40978169  0.73893775  0.10833651     0.20900
C1972       C  0.42005196  0.73449864  0.11759163     0.03100
C1973       C  0.42180558  0.72017062  0.12075413    -0.22200
C1974       C  0.41260954  0.71055729  0.11451827     0.12300
S1975       S  0.39135144  0.70191957  0.09993797    -0.05900
C1976       C  0.40112334  0.69020239  0.10970202    -0.09300
C1977       C  0.41221072  0.69627436  0.11679546    -0.26000
S1978       S  0.42941248  0.74787754  0.12492982    -0.03100
C1979       C  0.41948658  0.75962187  0.11535230    -0.16600
C1980       C  0.40952856  0.75332985  0.10686067    -0.14600
H1981       H  0.39236137  0.73284282  0.09511142     0.20800
H1982       H  0.42977057  0.71670281  0.12806412     0.16800
H1983       H  0.41925347  0.69063859  0.12371109     0.19300
H1984       H  0.40211821  0.75900397  0.10038433     0.12700
C1985       C  0.17261904  0.61070196  0.43801037     0.16500
C1986       C  0.17298746  0.60810274  0.45252981    -0.32500
C1987       C  0.17197694  0.59411479  0.45703714     0.20900
C1988       C  0.17066727  0.58307031  0.44756674     0.03100
C1989       C  0.17026620  0.58568469  0.43292852    -0.22200
C1990       C  0.17126490  0.59978366  0.42838089     0.12300
S1991       S  0.17380411  0.62700310  0.43063590    -0.05900
C1992       C  0.17248011  0.61923909  0.41423463    -0.09300
C1993       C  0.17113420  0.60463764  0.41466160    -0.26000
S1994       S  0.16959336  0.56683989  0.45551417    -0.03100
C1995       C  0.17084261  0.57514457  0.47172244    -0.16600
C1996       C  0.17208803  0.58967454  0.47075431    -0.14600
H1997       H  0.17402653  0.61666500  0.46003722     0.20800
H1998       H  0.16922543  0.57712597  0.42542644     0.16800
H1999       H  0.17019104  0.59792755  0.40545882     0.19300
H2000       H  0.17299407  0.59674296  0.47970335     0.12700
C2001       C  0.18323575  0.74772600  0.36748221     0.16500
C2002       C  0.19086316  0.76004150  0.36976664    -0.32500
C2003       C  0.18580522  0.77256719  0.36386643     0.20900
C2004       C  0.17351139  0.77295707  0.35623592     0.03100
C2005       C  0.16589866  0.76056400  0.35382767    -0.22200
C2006       C  0.17114269  0.74792745  0.35951413     0.12300
S2007       S  0.18785809  0.73149025  0.37363722    -0.05900
C2008       C  0.17357413  0.72469845  0.36509664    -0.09300
C2009       C  0.16560207  0.73467921  0.35800103    -0.26000
S2010       S  0.16918370  0.78940208  0.35016754    -0.03100
C2011       C  0.18431403  0.79566243  0.35769475    -0.16600
C2012       C  0.19205462  0.78547012  0.36464578    -0.14600
H2013       H  0.20045199  0.75984301  0.37578811     0.20800
H2014       H  0.15640064  0.76073483  0.34767498     0.16800
H2015       H  0.15628410  0.73235638  0.35202719     0.19300
H2016       H  0.20180646  0.78738673  0.37004018     0.12700
C2017       C  0.11613021  0.61769506  0.09893945     0.16500
C2018       C  0.10844323  0.61786771  0.08625991    -0.32500
C2019       C  0.09374950  0.61878769  0.08723634     0.20900
C2020       C  0.08716235  0.61956419  0.10028057     0.03100
C2021       C  0.09478926  0.61942388  0.11284585    -0.22200
C2022       C  0.10935661  0.61844519  0.11186931     0.12300
S2023       S  0.13398632  0.61650980  0.10030210    -0.05900
C2024       C  0.13221784  0.61700587  0.11848072    -0.09300
C2025       C  0.11843322  0.61805720  0.12301435    -0.26000
S2026       S  0.06945131  0.62056960  0.09953643    -0.03100
C2027       C  0.07060162  0.61990158  0.08136215    -0.16600
C2028       C  0.08425666  0.61897379  0.07625221    -0.14600
H2029       H  0.11366695  0.61725425  0.07612102     0.20800
H2030       H  0.08956287  0.61999772  0.12298837     0.16800
H2031       H  0.11512337  0.61850833  0.13393497     0.19300
H2032       H  0.08707317  0.61844862  0.06518645     0.12700
C2033       C  0.27152559  0.60898806  0.14554696     0.16500
C2034       C  0.28580228  0.60580513  0.14697558    -0.32500
C2035       C  0.29523988  0.61239975  0.13775914     0.20900
C2036       C  0.29065578  0.62192093  0.12772285     0.03100
C2037       C  0.27636319  0.62493340  0.12614859    -0.22200
C2038       C  0.26690454  0.61816459  0.13521045     0.12300
S2039       S  0.25848613  0.60241336  0.15594866    -0.05900
C2040       C  0.24658548  0.61181933  0.14606746    -0.09300
C2041       C  0.25258691  0.61969594  0.13533733    -0.26000
S2042       S  0.30377542  0.62933663  0.11803759    -0.03100
C2043       C  0.31560581  0.61929040  0.12735463    -0.16600
C2044       C  0.30953649  0.61071050  0.13748550    -0.14600
H2045       H  0.28940288  0.59855291  0.15497996     0.20800
H2046       H  0.27277683  0.63229443  0.11823757     0.16800
H2047       H  0.24681550  0.62642713  0.12821895     0.19300
H2048       H  0.31529269  0.60384957  0.14449092     0.12700
C2049       C  0.15480397  0.63356922  0.27321093     0.16500
C2050       C  0.15161776  0.63433371  0.25877877    -0.32500
C2051       C  0.15945165  0.62588203  0.24941448     0.20900
C2052       C  0.16994752  0.61704392  0.25424880     0.03100
C2053       C  0.17284982  0.61598240  0.26869764    -0.22200
C2054       C  0.16506456  0.62445340  0.27804289     0.12300
S2055       S  0.14742950  0.64386474  0.28610653    -0.05900
C2056       C  0.15815913  0.63568105  0.29816653    -0.09300
C2057       C  0.16688356  0.62545766  0.29237987    -0.26000
S2058       S  0.17909754  0.60859612  0.24120171    -0.03100
C2059       C  0.16863199  0.61692300  0.22902991    -0.16600
C2060       C  0.15849228  0.62568643  0.23493172    -0.14600
H2061       H  0.14367747  0.64152224  0.25497329     0.20800
H2062       H  0.18112281  0.60915755  0.27245537     0.16800
H2063       H  0.17458891  0.61952755  0.29824457     0.19300
H2064       H  0.15122766  0.63203889  0.22893736     0.12700
C2065       C  0.08692573  0.36102628  0.90076177     0.16500
C2066       C  0.09528538  0.36208598  0.88870345    -0.32500
C2067       C  0.10975219  0.36183158  0.89047367     0.20900
C2068       C  0.11576408  0.36072365  0.90368731     0.03100
C2069       C  0.10733873  0.35970295  0.91587258    -0.22200
C2070       C  0.09274216  0.35982552  0.91407407     0.12300
S2071       S  0.06920298  0.36072981  0.90048000    -0.05900
C2072       C  0.06935956  0.35884392  0.91854087    -0.09300
C2073       C  0.08264226  0.35860235  0.92441786    -0.26000
S2074       S  0.13367455  0.36054551  0.90327162    -0.03100
C2075       C  0.13289029  0.36181962  0.88510213    -0.16600
C2076       C  0.11943528  0.36244528  0.87986519    -0.14600
H2077       H  0.09068690  0.36291513  0.87832159     0.20800
H2078       H  0.11193697  0.35872262  0.92623661     0.16800
H2079       H  0.08478319  0.35738749  0.93555481     0.19300
H2080       H  0.11678000  0.36330541  0.86881643     0.12700
C2081       C  0.44512693  0.43278207  0.85053166     0.16500
C2082       C  0.45767430  0.44049787  0.85040716    -0.32500
C2083       C  0.45670983  0.45530436  0.84972451     0.20900
C2084       C  0.44380379  0.46195227  0.84902800     0.03100
C2085       C  0.43137603  0.45429407  0.84905734    -0.22200
C2086       C  0.43233283  0.43962458  0.84990104     0.12300
S2087       S  0.44378085  0.41482862  0.85183432    -0.05900
C2088       C  0.42580062  0.41667032  0.85164946    -0.09300
C2089       C  0.42129575  0.43052180  0.85050405    -0.26000
S2090       S  0.44449766  0.47979500  0.84860740    -0.03100
C2091       C  0.46245467  0.47862805  0.84953167    -0.16600
C2092       C  0.46755727  0.46487144  0.84998072    -0.14600
H2093       H  0.46769804  0.43521886  0.85103360     0.20800
H2094       H  0.42134038  0.45958763  0.84866029     0.16800
H2095       H  0.41047761  0.43385872  0.85030588     0.19300
H2096       H  0.47849485  0.46204642  0.85069554     0.12700
C2097       C  0.29449230  0.38268069  0.86101295     0.16500
C2098       C  0.28164714  0.38673802  0.85529836    -0.32500
C2099       C  0.26958262  0.38040473  0.86068178     0.20900
C2100       C  0.27016020  0.37075353  0.87160145     0.03100
C2101       C  0.28305274  0.36667329  0.87734265    -0.22200
C2102       C  0.29519619  0.37271755  0.87164170     0.12300
S2103       S  0.31032109  0.38866727  0.85536199    -0.05900
C2104       C  0.31809650  0.37733918  0.86712798    -0.09300
C2105       C  0.30875064  0.36955003  0.87515070    -0.26000
S2106       S  0.25422694  0.36414575  0.87639530    -0.03100
C2107       C  0.24686585  0.37413753  0.86319367    -0.16600
C2108       C  0.25629681  0.38231842  0.85579260    -0.14600
H2109       H  0.28110726  0.39425659  0.84673797     0.20800
H2110       H  0.28362118  0.35886557  0.88563059     0.16800
H2111       H  0.31171193  0.36184457  0.88299906     0.19300
H2112       H  0.25359920  0.38913096  0.84706274     0.12700
C2113       C  0.40394263  0.11565205  0.93820756     0.16500
C2114       C  0.40430929  0.11256061  0.95265053    -0.32500
C2115       C  0.40389491  0.09836706  0.95663330     0.20900
C2116       C  0.40319729  0.08766456  0.94669011     0.03100
C2117       C  0.40287665  0.09076763  0.93218499    -0.22200
C2118       C  0.40325233  0.10501670  0.92818259     0.12300
S2119       S  0.40423962  0.13222361  0.93136652    -0.05900
C2120       C  0.40346787  0.12488915  0.91470998    -0.09300
C2121       C  0.40298890  0.11025703  0.91464237    -0.26000
S2122       S  0.40265375  0.07112016  0.95383790    -0.03100
C2123       C  0.40329232  0.07873300  0.97040105    -0.16600
C2124       C  0.40397321  0.09333554  0.97018147    -0.14600
H2125       H  0.40483176  0.12089002  0.96047259     0.20800
H2126       H  0.40230540  0.08244264  0.92436510     0.16800
H2127       H  0.40247626  0.10379384  0.90522286     0.19300
H2128       H  0.40442157  0.09997981  0.97948504     0.12700
C2129       C  0.40329632  0.25485928  0.87743796     0.16500
C2130       C  0.39734501  0.26756978  0.88213036    -0.32500
C2131       C  0.40164705  0.28000109  0.87550831     0.20900
C2132       C  0.41164440  0.27984193  0.86487291     0.03100
C2133       C  0.41752968  0.26710836  0.86010870    -0.22200
C2134       C  0.41302266  0.25463887  0.86654715     0.12300
S2135       S  0.39923097  0.23863808  0.88390708    -0.05900
C2136       C  0.41047824  0.23140314  0.87157196    -0.09300
C2137       C  0.41712414  0.24118870  0.86307345    -0.26000
S2138       S  0.41548580  0.29609565  0.85826765    -0.03100
C2139       C  0.40323515  0.30314243  0.86970753    -0.16600
C2140       C  0.39671990  0.29331843  0.87825762    -0.14600
H2141       H  0.38955865  0.26774472  0.89047147     0.20800
H2142       H  0.42516508  0.26691375  0.85162798     0.16800
H2143       H  0.42449133  0.23860274  0.85473167     0.19300
H2144       H  0.38873409  0.29577630  0.88604061     0.12700
C2145       C  0.17908401  0.39613440  0.54316286     0.16500
C2146       C  0.18049296  0.38384880  0.55116014    -0.32500
C2147       C  0.17867889  0.38491021  0.56579332     0.20900
C2148       C  0.17576631  0.39769429  0.57228511     0.03100
C2149       C  0.17445764  0.41010659  0.56424185    -0.22200
C2150       C  0.17611548  0.40900983  0.54947382     0.12300
S2151       S  0.18029002  0.39662777  0.52526531    -0.05900
C2152       C  0.17665981  0.41442979  0.52597124    -0.09300
C2153       C  0.17477091  0.41964859  0.53961936    -0.26000
S2154       S  0.17368299  0.39646208  0.59023917    -0.03100
C2155       C  0.17660800  0.37851376  0.58887733    -0.16600
C2156       C  0.17918633  0.37395452  0.57517521    -0.14600
H2157       H  0.18267182  0.37381127  0.54613917     0.20800
H2158       H  0.17204075  0.42009987  0.56923853     0.16800
H2159       H  0.17225284  0.43049379  0.54216140     0.19300
H2160       H  0.18121122  0.36313864  0.57214326     0.12700
C2161       C  0.17681958  0.36402385  0.72771594     0.16500
C2162       C  0.18179015  0.37011287  0.74024064    -0.32500
C2163       C  0.17716511  0.36441856  0.75310909     0.20900
C2164       C  0.16778108  0.35337121  0.75348782     0.03100
C2165       C  0.16295220  0.34720206  0.74100137    -0.22200
C2166       C  0.16778526  0.35269412  0.72817382     0.12300
S2167       S  0.18131718  0.36911091  0.71096909    -0.05900
C2168       C  0.17125390  0.35553081  0.70459311    -0.09300
C2169       C  0.16464214  0.34774862  0.71498899    -0.26000
S2170       S  0.16311256  0.34819858  0.77009056    -0.03100
C2171       C  0.17418624  0.36080550  0.77666693    -0.16600
C2172       C  0.18101397  0.36862106  0.76641059    -0.14600
H2173       H  0.18904110  0.37881026  0.73997081     0.20800
H2174       H  0.15581668  0.33840481  0.74127118     0.16800
H2175       H  0.15796216  0.33880765  0.71300801     0.19300
H2176       H  0.18830095  0.37701580  0.76858100     0.12700
C2177       C  0.47174391  0.13885322  0.59922308     0.16500
C2178       C  0.47966655  0.13850493  0.58668247    -0.32500
C2179       C  0.49402466  0.14138014  0.58761896     0.20900
C2180       C  0.50016804  0.14440849  0.60048018     0.03100
C2181       C  0.49228034  0.14471090  0.61297439    -0.22200
C2182       C  0.47797670  0.14186976  0.61203370     0.12300
S2183       S  0.45415863  0.13591766  0.60043021    -0.05900
C2184       C  0.45525188  0.13879875  0.61838891    -0.09300
C2185       C  0.46862218  0.14179779  0.62303219    -0.26000
S2186       S  0.51766254  0.14748731  0.59953538    -0.03100
C2187       C  0.51685832  0.14466672  0.58156890    -0.16600
C2188       C  0.50356082  0.14154948  0.57668514    -0.14600
H2189       H  0.47485165  0.13614045  0.57664982     0.20800
H2190       H  0.49709193  0.14707811  0.62301017     0.16800
H2191       H  0.47138336  0.14397949  0.63387322     0.19300
H2192       H  0.50103764  0.13936238  0.56577579     0.12700
C2193       C  0.40735114  0.13463648  0.77529606     0.16500
C2194       C  0.40314297  0.12774995  0.76290034    -0.32500
C2195       C  0.40881653  0.13238385  0.75003566     0.20900
C2196       C  0.41848772  0.14317237  0.74957726     0.03100
C2197       C  0.42262660  0.15009445  0.76193671    -0.22200
C2198       C  0.41673107  0.14567231  0.77473966     0.12300
S2199       S  0.40155025  0.13082026  0.79195994    -0.05900
C2200       C  0.41163558  0.14445101  0.79818480    -0.09300
C2201       C  0.41913954  0.15139803  0.78779122    -0.26000
S2202       S  0.42419454  0.14724145  0.73300087    -0.03100
C2203       C  0.41313750  0.13456174  0.72650135    -0.16600
C2204       C  0.40563529  0.12745010  0.73679440    -0.14600
H2205       H  0.39563600  0.11927526  0.76324901     0.20800
H2206       H  0.42999726  0.15868904  0.76156936     0.16800
H2207       H  0.42604310  0.16018140  0.78967269     0.19300
H2208       H  0.39818336  0.11918563  0.73469818     0.12700
C2209       C  0.12987471  0.04857126  0.63307470     0.16500
C2210       C  0.13263952  0.06309444  0.63318216    -0.32500
C2211       C  0.14659511  0.06733391  0.63473866     0.20900
C2212       C  0.15726958  0.05752809  0.63617319     0.03100
C2213       C  0.15450965  0.04306588  0.63611591    -0.22200
C2214       C  0.14061543  0.03884701  0.63450318     0.12300
S2215       S  0.11373275  0.04115185  0.63115117    -0.05900
C2216       C  0.12158213  0.02478428  0.63226244    -0.09300
C2217       C  0.13594713  0.02525086  0.63404166    -0.26000
S2218       S  0.17348768  0.06464414  0.63766566    -0.03100
C2219       C  0.16594255  0.08110874  0.63628204    -0.16600
C2220       C  0.15150877  0.08092290  0.63484209    -0.14600
H2221       H  0.12429652  0.07074683  0.63200948     0.20800
H2222       H  0.16286714  0.03540980  0.63717925     0.16800
H2223       H  0.14267574  0.01608945  0.63494117     0.19300
H2224       H  0.14497611  0.09019297  0.63372079     0.12700
C2225       C  0.17347767  0.22058150  0.63544919     0.16500
C2226       C  0.16796773  0.23313251  0.64119098    -0.32500
C2227       C  0.17139126  0.24586029  0.63448266     0.20900
C2228       C  0.17963707  0.24601824  0.62241707     0.03100
C2229       C  0.18521412  0.23352759  0.61677521    -0.22200
C2230       C  0.18209339  0.22088511  0.62365423     0.12300
S2231       S  0.17096966  0.20403213  0.64212740    -0.05900
C2232       C  0.18202350  0.19759429  0.62915605    -0.09300
C2233       C  0.18711105  0.20778953  0.62009687    -0.26000
S2234       S  0.18258526  0.26241500  0.61575638    -0.03100
C2235       C  0.17296196  0.26930693  0.62957775    -0.16600
C2236       C  0.16759937  0.25923420  0.63871178    -0.14600
H2237       H  0.16148306  0.23300358  0.65059391     0.20800
H2238       H  0.19191191  0.23368247  0.60752247     0.16800
H2239       H  0.19424779  0.20572980  0.61140936     0.19300
H2240       H  0.16135873  0.26156888  0.64800399     0.12700
C2241       C  0.31902429  0.13094920  0.63026047     0.16500
C2242       C  0.30652644  0.13663714  0.62502575    -0.32500
C2243       C  0.29397739  0.13013269  0.62897375     0.20900
C2244       C  0.29392042  0.11825274  0.63742675     0.03100
C2245       C  0.30639446  0.11259108  0.64267825    -0.22200
C2246       C  0.31888968  0.11933273  0.63907392     0.12300
S2247       S  0.33528671  0.13768814  0.62730017    -0.05900
C2248       C  0.34188969  0.12505661  0.63848543    -0.09300
C2249       C  0.33196287  0.11596082  0.64389104    -0.26000
S2250       S  0.27767447  0.11189278  0.64103806    -0.03100
C2251       C  0.27077828  0.12558169  0.63136642    -0.16600
C2252       C  0.28070721  0.13445198  0.62553393    -0.14600
H2253       H  0.30656242  0.14592000  0.61841169     0.20800
H2254       H  0.30633305  0.10349795  0.64955362     0.16800
H2255       H  0.33416767  0.10748935  0.65118953     0.19300
H2256       H  0.27835527  0.14359866  0.61916396     0.12700
C2257       C  0.65911608  0.55197223  0.13242962     0.16500
C2258       C  0.65642506  0.53749492  0.13297446    -0.32500
C2259       C  0.64244881  0.53320380  0.13322491     0.20900
C2260       C  0.63157414  0.54288680  0.13294240     0.03100
C2261       C  0.63427695  0.55742885  0.13233879    -0.22200
C2262       C  0.64831369  0.56174386  0.13207744     0.12300
S2263       S  0.67537680  0.55915525  0.13222202    -0.05900
C2264       C  0.66770118  0.57562329  0.13159705    -0.09300
C2265       C  0.65318006  0.57537550  0.13154437    -0.26000
S2266       S  0.61534281  0.53538790  0.13342098    -0.03100
C2267       C  0.62332124  0.51903550  0.13399575    -0.16600
C2268       C  0.63780819  0.51957704  0.13380851    -0.14600
H2269       H  0.66489059  0.52988221  0.13323657     0.20800
H2270       H  0.62581361  0.56504112  0.13211284     0.16800
H2271       H  0.64654422  0.58463913  0.13123504     0.19300
H2272       H  0.64463760  0.51044948  0.13410133     0.12700
C2273       C  0.89083071  0.58999632  0.45572270     0.16500
C2274       C  0.89069733  0.60252713  0.44802485    -0.32500
C2275       C  0.89224938  0.60159254  0.43336567     0.20900
C2276       C  0.89375613  0.58873421  0.42655771     0.03100
C2277       C  0.89378942  0.57609068  0.43429285    -0.22200
C2278       C  0.89235942  0.57704306  0.44907771     0.12300
S2279       S  0.88952032  0.58920312  0.47360663    -0.05900
C2280       C  0.89110994  0.57115853  0.47238827    -0.09300
C2281       C  0.89251611  0.56611031  0.45863227    -0.26000
S2282       S  0.89592534  0.59013219  0.40864744    -0.03100
C2283       C  0.89490938  0.60823004  0.41047776    -0.16600
C2284       C  0.89283480  0.61273201  0.42426219    -0.14600
H2285       H  0.88963003  0.61261882  0.45327778     0.20800
H2286       H  0.89507660  0.56601614  0.42906000     0.16800
H2287       H  0.89372840  0.55511911  0.45580189     0.19300
H2288       H  0.89205765  0.62362167  0.42757008     0.12700
C2289       C  0.97420351  0.62194030  0.09793488     0.16500
C2290       C  0.98224599  0.62061990  0.08550690    -0.32500
C2291       C  0.99677709  0.62249332  0.08656999     0.20900
C2292       C  0.00289729  0.62563081  0.09942086     0.03100
C2293       C  0.99489147  0.62704230  0.11173542    -0.22200
C2294       C  0.98047913  0.62505514  0.11069864     0.12300
S2295       S  0.95649600  0.61973989  0.09916987    -0.05900
C2296       C  0.95767981  0.62294921  0.11708087    -0.09300
C2297       C  0.97112021  0.62564727  0.12165143    -0.26000
S2298       S  0.02057233  0.62705308  0.09884553    -0.03100
C2299       C  0.01996044  0.62330796  0.08105249    -0.16600
C2300       C  0.00655888  0.62122555  0.07589053    -0.14600
H2301       H  0.97742855  0.61807026  0.07552261     0.20800
H2302       H  0.99973261  0.62938221  0.12176182     0.16800
H2303       H  0.97397925  0.62787800  0.13245512     0.19300
H2304       H  0.00414805  0.61860124  0.06505251     0.12700
C2305       C  0.92255792  0.63053315  0.24924818     0.16500
C2306       C  0.92702134  0.63701977  0.26171881    -0.32500
C2307       C  0.92107361  0.63250111  0.27445488     0.20900
C2308       C  0.91135008  0.62175709  0.27482606     0.03100
C2309       C  0.90678920  0.61533825  0.26233011    -0.22200
C2310       C  0.91250042  0.62010157  0.24954951     0.12300
S2311       S  0.92832110  0.63474133  0.23272567    -0.05900
C2312       C  0.91676879  0.62262332  0.22608688    -0.09300
C2313       C  0.90903205  0.61561024  0.23625468    -0.26000
S2314       S  0.90546950  0.61778548  0.29138847    -0.03100
C2315       C  0.91590351  0.63103998  0.29781689    -0.16600
C2316       C  0.92365019  0.63793047  0.28759463    -0.14600
H2317       H  0.93466221  0.64537641  0.26148621     0.20800
H2318       H  0.89898460  0.60713890  0.26254440     0.16800
H2319       H  0.90125741  0.60768805  0.23402898     0.19300
H2320       H  0.93072309  0.64653785  0.28965147     0.12700
C2321       C  0.82129264  0.62201594  0.12937071     0.16500
C2322       C  0.80924788  0.62595855  0.12198544    -0.32500
C2323       C  0.79634504  0.62132168  0.12722381     0.20900
C2324       C  0.79549428  0.61290965  0.13912218     0.03100
C2325       C  0.80750357  0.60909135  0.14657127    -0.22200
C2326       C  0.82035807  0.61393725  0.14148833     0.12300
S2327       S  0.83795278  0.62660179  0.12484745    -0.05900
C2328       C  0.84364483  0.61781457  0.13963279    -0.09300
C2329       C  0.83312082  0.61159656  0.14747401    -0.26000
S2330       S  0.77893236  0.60818476  0.14368532    -0.03100
C2331       C  0.77301482  0.61794996  0.12963696    -0.16600
C2332       C  0.78343787  0.62434985  0.12179120    -0.14600
H2333       H  0.80989433  0.63245130  0.11262831     0.20800
H2334       H  0.80684668  0.60270036  0.15600020     0.16800
H2335       H  0.83471932  0.60562082  0.15705196     0.19300
H2336       H  0.78166383  0.63087448  0.11261433     0.12700
C2337       C  0.92303501  0.92833382  0.36629695     0.16500
C2338       C  0.92614123  0.94271862  0.36658026    -0.32500
C2339       C  0.94021430  0.94660975  0.36713220     0.20900
C2340       C  0.95083581  0.93665021  0.36728846     0.03100
C2341       C  0.94771553  0.92215627  0.36693584    -0.22200
C2342       C  0.93353787  0.91823265  0.36648829     0.12300
S2343       S  0.90655117  0.92169805  0.36595844    -0.05900
C2344       C  0.91365609  0.90497836  0.36615645    -0.09300
C2345       C  0.92820745  0.90474455  0.36638108    -0.26000
S2346       S  0.96725403  0.94381469  0.36811710    -0.03100
C2347       C  0.95964307  0.96037121  0.36833052    -0.16600
C2348       C  0.94515721  0.96010943  0.36771585    -0.14600
H2349       H  0.91789384  0.95057857  0.36650354     0.20800
H2350       H  0.95595484  0.91429863  0.36712562     0.16800
H2351       H  0.93453450  0.89526272  0.36658537     0.19300
H2352       H  0.93849985  0.96937462  0.36774791     0.12700
C2353       C  0.90394644  0.76601824  0.36568909     0.16500
C2354       C  0.91181062  0.75378348  0.36279800    -0.32500
C2355       C  0.90629507  0.74080650  0.36715986     0.20900
C2356       C  0.89365926  0.74009322  0.37432276     0.03100
C2357       C  0.88574092  0.75227052  0.37703316    -0.22200
C2358       C  0.89112002  0.76517973  0.37246027     0.12300
S2359       S  0.90870679  0.78282491  0.36135596    -0.05900
C2360       C  0.89309313  0.78871315  0.36846484    -0.09300
C2361       C  0.88481661  0.77809893  0.37395794    -0.26000
S2362       S  0.88884943  0.72346278  0.37900000    -0.03100
C2363       C  0.90380160  0.71726808  0.37086338    -0.16600
C2364       C  0.91210637  0.72768906  0.36500704    -0.14600
H2365       H  0.92174585  0.75434439  0.35732062     0.20800
H2366       H  0.87575683  0.75169912  0.38242524     0.16800
H2367       H  0.87471849  0.77973971  0.37891601     0.19300
H2368       H  0.92184438  0.72575614  0.35944678     0.12700
C2369       C  0.59535117  0.85262637  0.38340507     0.16500
C2370       C  0.58092652  0.85252983  0.38606691    -0.32500
C2371       C  0.57642853  0.85278408  0.40019036     0.20900
C2372       C  0.58585217  0.85314363  0.41122109     0.03100
C2373       C  0.60031753  0.85328800  0.40854656    -0.22200
C2374       C  0.60483898  0.85302084  0.39438493     0.12300
S2375       S  0.60283458  0.85220752  0.36700729    -0.05900
C2376       C  0.61902478  0.85260302  0.37490478    -0.09300
C2377       C  0.61845041  0.85304440  0.38957365    -0.26000
S2378       S  0.57816690  0.85328326  0.42761405    -0.03100
C2379       C  0.56207465  0.85282522  0.41951341    -0.16600
C2380       C  0.56283696  0.85261803  0.40485784    -0.14600
H2381       H  0.57351466  0.85221389  0.37748212     0.20800
H2382       H  0.60772842  0.85355239  0.41713343     0.16800
H2383       H  0.62749093  0.85330316  0.39637420     0.19300
H2384       H  0.55388669  0.85229630  0.39793099     0.12700
C2385       C  0.78303911  0.87116357  0.36000409     0.16500
C2386       C  0.77046063  0.87712341  0.35526481    -0.32500
C2387       C  0.75801435  0.86993254  0.35825021     0.20900
C2388       C  0.75803898  0.85753428  0.36591858     0.03100
C2389       C  0.77062836  0.85149988  0.37051497    -0.22200
C2390       C  0.78309762  0.85851996  0.36725374     0.12300
S2391       S  0.79928624  0.87809641  0.35728679    -0.05900
C2392       C  0.80629229  0.86360972  0.36566175    -0.09300
C2393       C  0.79639325  0.85408732  0.37041604    -0.26000
S2394       S  0.74181892  0.85048423  0.36850940    -0.03100
C2395       C  0.73495807  0.86412786  0.35876816    -0.16600
C2396       C  0.74481772  0.87367588  0.35399315    -0.14600
H2397       H  0.77039348  0.88685712  0.34933768     0.20800
H2398       H  0.77071599  0.84164514  0.37624180     0.16800
H2399       H  0.79878974  0.84439275  0.37590409     0.19300
H2400       H  0.74245461  0.88278727  0.34757067     0.12700
C2401       C  0.69387653  0.89336352  0.07080466     0.16500
C2402       C  0.69262164  0.90595684  0.06307532    -0.32500
C2403       C  0.69617312  0.90555016  0.04862248     0.20900
C2404       C  0.70082322  0.89316841  0.04231783     0.03100
C2405       C  0.70213572  0.88071302  0.05000574    -0.22200
C2406       C  0.69849227  0.88108761  0.06429939     0.12300
S2407       S  0.68975135  0.89127127  0.08830264    -0.05900
C2408       C  0.69412018  0.87365453  0.08663276    -0.09300
C2409       C  0.69866009  0.86983312  0.07325445    -0.26000
S2410       S  0.70414916  0.89440558  0.02475279    -0.03100
C2411       C  0.69920567  0.91186388  0.02561158    -0.16600
C2412       C  0.69528933  0.91643931  0.03904163    -0.14600
H2413       H  0.68887116  0.91554798  0.06803724     0.20800
H2414       H  0.70562911  0.87105211  0.04498160     0.16800
H2415       H  0.70180846  0.85930549  0.07014188     0.19300
H2416       H  0.69163381  0.92696261  0.04155629     0.12700
C2417       C  0.67370400  0.85621892  0.22102594     0.16500
C2418       C  0.67760204  0.86251832  0.23382256    -0.32500
C2419       C  0.67178804  0.85715048  0.24631099     0.20900
C2420       C  0.66222058  0.84626385  0.24603321     0.03100
C2421       C  0.65831864  0.83998224  0.23324591    -0.22200
C2422       C  0.66441512  0.84508964  0.22080036     0.12300
S2423       S  0.68010110  0.86069829  0.20479918    -0.05900
C2424       C  0.67050260  0.84714367  0.19766804    -0.09300
C2425       C  0.66255865  0.83982171  0.20744115    -0.26000
S2426       S  0.65634961  0.84125172  0.26228864    -0.03100
C2427       C  0.66714469  0.85371270  0.26961796    -0.16600
C2428       C  0.67473611  0.86140725  0.25983366    -0.14600
H2429       H  0.68506917  0.87102813  0.23405630     0.20800
H2430       H  0.65106196  0.83128583  0.23303515     0.16800
H2431       H  0.65595102  0.83095459  0.20495524     0.19300
H2432       H  0.68202527  0.86966516  0.26246514     0.12700
C2433       C  0.68947207  0.74034045  0.11378980     0.16500
C2434       C  0.69659975  0.72796368  0.10987035    -0.32500
C2435       C  0.69112271  0.71508297  0.11446600     0.20900
C2436       C  0.67892273  0.71451396  0.12236751     0.03100
C2437       C  0.67182670  0.72690638  0.12635024    -0.22200
C2438       C  0.67747368  0.73981507  0.12201592     0.12300
S2439       S  0.69465740  0.75699929  0.10960984    -0.05900
C2440       C  0.68077214  0.76339925  0.11941032    -0.09300
C2441       C  0.67248308  0.75302676  0.12535606    -0.26000
S2442       S  0.67398960  0.69782402  0.12683873    -0.03100
C2443       C  0.68867829  0.69152618  0.11823276    -0.16600
C2444       C  0.69680201  0.70195980  0.11213386    -0.14600
H2445       H  0.70612513  0.72836960  0.10366980     0.20800
H2446       H  0.66242272  0.72651165  0.13273977     0.16800
H2447       H  0.66337454  0.75504861  0.13190029     0.19300
H2448       H  0.70640238  0.70007258  0.10632053     0.12700
C2449       C  0.16971478  0.60012741  0.56771134     0.16500
C2450       C  0.16885348  0.58707666  0.56065861    -0.32500
C2451       C  0.17032406  0.58700268  0.54586217     0.20900
C2452       C  0.17257443  0.59939738  0.53853733     0.03100
C2453       C  0.17360869  0.61234008  0.54557119    -0.22200
C2454       C  0.17212146  0.61241554  0.56027611     0.12300
S2455       S  0.16756312  0.60271344  0.58549097    -0.05900
C2456       C  0.16994417  0.62052773  0.58282608    -0.09300
C2457       C  0.17239235  0.62408118  0.56885400    -0.26000
S2458       S  0.17366266  0.59739349  0.52072147    -0.03100
C2459       C  0.17118365  0.57956531  0.52292709    -0.16600
C2460       C  0.16957223  0.57550130  0.53693417    -0.14600
H2461       H  0.16693284  0.57745805  0.56642109     0.20800
H2462       H  0.17531658  0.62199207  0.53978686     0.16800
H2463       H  0.17391159  0.63469924  0.56506470     0.19300
H2464       H  0.16779788  0.56480230  0.54037141     0.12700
C2465       C  0.47202786  0.85539863  0.60128347     0.16500
C2466       C  0.47957377  0.85594234  0.58846955    -0.32500
C2467       C  0.49427661  0.85570267  0.58915687     0.20900
C2468       C  0.50100374  0.85503564  0.60205806     0.03100
C2469       C  0.49351988  0.85445355  0.61474832    -0.22200
C2470       C  0.47894734  0.85461534  0.61405455     0.12300
S2471       S  0.45418456  0.85561994  0.60299687    -0.05900
C2472       C  0.45618959  0.85453307  0.62108538    -0.09300
C2473       C  0.47000240  0.85409022  0.62535626    -0.26000
S2474       S  0.51869428  0.85511933  0.60100943    -0.03100
C2475       C  0.51733205  0.85600151  0.58289474    -0.16600
C2476       C  0.50365015  0.85619279  0.57800966    -0.14600
H2477       H  0.47423752  0.85654123  0.57844991     0.20800
H2478       H  0.49885684  0.85391898  0.62477678     0.16800
H2479       H  0.47341581  0.85348532  0.63620235     0.19300
H2480       H  0.50073928  0.85686069  0.56701093     0.12700
C2481       C  0.15824070  0.94077367  0.63701523     0.16500
C2482       C  0.15503858  0.95516245  0.63761848    -0.32500
C2483       C  0.14125543  0.95928024  0.63486323     0.20900
C2484       C  0.13103355  0.94953494  0.63166378     0.03100
C2485       C  0.13426656  0.93508556  0.63096607    -0.22200
C2486       C  0.14811646  0.93095069  0.63371575     0.12300
S2487       S  0.17434737  0.93377355  0.64017429    -0.05900
C2488       C  0.16751228  0.91734046  0.63698253    -0.09300
C2489       C  0.15339383  0.91744494  0.63363665    -0.26000
S2490       S  0.11488196  0.95683589  0.62885538    -0.03100
C2491       C  0.12205927  0.97317815  0.63193549    -0.16600
C2492       C  0.13620601  0.97279496  0.63498762    -0.14600
H2493       H  0.16296193  0.96283515  0.64016875     0.20800
H2494       H  0.12634145  0.92741324  0.62843818     0.16800
H2495       H  0.14730095  0.90816987  0.63131550     0.19300
H2496       H  0.14250486  0.98195448  0.63723822     0.12700
C2497       C  0.32023388  0.86031918  0.64477158     0.16500
C2498       C  0.30750168  0.85608726  0.63901392    -0.32500
C2499       C  0.29535794  0.86298472  0.64373541     0.20900
C2500       C  0.29579880  0.87365232  0.65374011     0.03100
C2501       C  0.30852772  0.87771246  0.65971173    -0.22200
C2502       C  0.32069451  0.87078045  0.65500249     0.12300
S2503       S  0.33618282  0.85366877  0.63996732    -0.05900
C2504       C  0.34357147  0.86498106  0.65198822    -0.09300
C2505       C  0.33406740  0.87336940  0.65931787    -0.26000
S2506       S  0.27986261  0.88099145  0.65763238    -0.03100
C2507       C  0.27254111  0.86939924  0.64579088    -0.16600
C2508       C  0.28207534  0.86045198  0.63922116    -0.14600
H2509       H  0.30708941  0.84787344  0.63105762     0.20800
H2510       H  0.30895284  0.88601568  0.66757338     0.16800
H2511       H  0.33682722  0.88115450  0.66719230     0.19300
H2512       H  0.27947680  0.85256166  0.63140090     0.12700
C2513       C  0.17448904  0.78034416  0.62177389     0.16500
C2514       C  0.16590452  0.76856088  0.62347887    -0.32500
C2515       C  0.17192095  0.75520909  0.62129441     0.20900
C2516       C  0.18578689  0.75365220  0.61726365     0.03100
C2517       C  0.19439244  0.76543196  0.61565999    -0.22200
C2518       C  0.18844291  0.77876542  0.61811480     0.12300
S2519       S  0.16931446  0.79741490  0.62437720    -0.05900
C2520       C  0.18621142  0.80248898  0.62082038    -0.09300
C2521       C  0.19522329  0.79141876  0.61757353    -0.26000
S2522       S  0.19105565  0.73655832  0.61496697    -0.03100
C2523       C  0.17451459  0.73144561  0.61985219    -0.16600
C2524       C  0.16544612  0.74247915  0.62296455    -0.14600
H2525       H  0.15505349  0.76973934  0.62657622     0.20800
H2526       H  0.20530193  0.76424659  0.61278659     0.16800
H2527       H  0.20621705  0.79250935  0.61513401     0.19300
H2528       H  0.15469498  0.74122833  0.62631043     0.12700
C2529       C  0.39706213  0.88072383  0.94175995     0.16500
C2530       C  0.39500272  0.88404758  0.95598113    -0.32500
C2531       C  0.39706357  0.89800075  0.96016453     0.20900
C2532       C  0.40099478  0.90832830  0.95068542     0.03100
C2533       C  0.40303342  0.90499314  0.93633570    -0.22200
C2534       C  0.40096454  0.89092528  0.93211209     0.12300
S2535       S  0.39524909  0.86428897  0.93485121    -0.05900
C2536       C  0.39975877  0.87105388  0.91864279    -0.09300
C2537       C  0.40249911  0.88541771  0.91873582    -0.26000
S2538       S  0.40310928  0.92462857  0.95825614    -0.03100
C2539       C  0.39867602  0.91728133  0.97428879    -0.16600
C2540       C  0.39570802  0.90303723  0.97358810    -0.14600
H2541       H  0.39199217  0.87605276  0.96351120     0.20800
H2542       H  0.40615137  0.91296250  0.92883203     0.16800
H2543       H  0.40557830  0.89146240  0.90958536     0.19300
H2544       H  0.39280774  0.89657882  0.98252212     0.12700
C2545       C  0.41254765  0.85705855  0.78050656     0.16500
C2546       C  0.40802671  0.86302549  0.76781951    -0.32500
C2547       C  0.41405784  0.85798330  0.75524494     0.20900
C2548       C  0.42427404  0.84758390  0.75525489     0.03100
C2549       C  0.42872300  0.84152309  0.76795022    -0.22200
C2550       C  0.42254898  0.84644329  0.78052820     0.12300
S2551       S  0.40640389  0.86162741  0.79687024    -0.05900
C2552       C  0.41719104  0.84888293  0.80382520    -0.09300
C2553       C  0.42519077  0.84164933  0.79388177    -0.26000
S2554       S  0.43033189  0.84305789  0.73882087    -0.03100
C2555       C  0.41878575  0.85513822  0.73186076    -0.16600
C2556       C  0.41082825  0.86229667  0.74188166    -0.14600
H2557       H  0.40007589  0.87118544  0.76774212     0.20800
H2558       H  0.43657216  0.83326558  0.76801682     0.16800
H2559       H  0.43250647  0.83326859  0.79628689     0.19300
H2560       H  0.40305343  0.87026131  0.73954185     0.12700
C2561       C  0.42299178  0.55942647  0.85233853     0.16500
C2562       C  0.42713528  0.54537105  0.85064428    -0.32500
C2563       C  0.44141069  0.54223080  0.85160700     0.20900
C2564       C  0.45124259  0.55256914  0.85406413     0.03100
C2565       C  0.44708005  0.56671208  0.85572889    -0.22200
C2566       C  0.43272306  0.56986647  0.85484484     0.12300
S2567       S  0.40611120  0.56522748  0.85183391    -0.05900
C2568       C  0.41208994  0.58198055  0.85513833    -0.09300
C2569       C  0.42651336  0.58287221  0.85643707    -0.26000
S2570       S  0.46808403  0.54629270  0.85497202    -0.03100
C2571       C  0.46170685  0.52957966  0.85206160    -0.16600
C2572       C  0.44730629  0.52914126  0.85046303    -0.14600
H2573       H  0.41953156  0.53719166  0.84876806     0.20800
H2574       H  0.45466723  0.57487160  0.85773531     0.16800
H2575       H  0.43216110  0.59247293  0.85857994     0.19300
H2576       H  0.44135993  0.51965364  0.84862266     0.12700
C2577       C  0.39098033  0.71903006  0.88465383     0.16500
C2578       C  0.38944734  0.73323267  0.88842837    -0.32500
C2579       C  0.39869261  0.74288246  0.88236442     0.20900
C2580       C  0.40903902  0.73858613  0.87297354     0.03100
C2581       C  0.41078991  0.72432352  0.86945568    -0.22200
C2582       C  0.40151222  0.71466559  0.87550333     0.12300
S2583       S  0.38006364  0.70593149  0.88992881    -0.05900
C2584       C  0.38982185  0.69439028  0.87978987    -0.09300
C2585       C  0.40103458  0.70046328  0.87283906    -0.26000
S2586       S  0.41850420  0.75205307  0.86597111    -0.03100
C2587       C  0.40849658  0.76358650  0.87589877    -0.16600
C2588       C  0.39844241  0.75720015  0.88422125    -0.14600
H2589       H  0.38115576  0.73666630  0.89548875     0.20800
H2590       H  0.41879090  0.72095107  0.86203682     0.16800
H2591       H  0.40804602  0.69492276  0.86570523     0.19300
H2592       H  0.39099345  0.76276168  0.89087369     0.12700
C2593       C  0.09588419  0.62960112  0.88210952     0.16500
C2594       C  0.08180569  0.63158419  0.88549693    -0.32500
C2595       C  0.07792814  0.63083811  0.89971053     0.20900
C2596       C  0.08758225  0.62824892  0.91023032     0.03100
C2597       C  0.10181526  0.62639418  0.90683706    -0.22200
C2598       C  0.10572793  0.62713000  0.89249601     0.12300
S2599       S  0.10237720  0.62988056  0.86538085    -0.05900
C2600       C  0.11870239  0.62677248  0.87224302    -0.09300
C2601       C  0.11894619  0.62553854  0.88687131    -0.26000
S2602       S  0.08033153  0.62724460  0.92681701    -0.03100
C2603       C  0.06418928  0.63028108  0.91933276    -0.16600
C2604       C  0.06464112  0.63210810  0.90483388    -0.14600
H2605       H  0.07413871  0.63348996  0.87734590     0.20800
H2606       H  0.10945423  0.62433672  0.91496797     0.16800
H2607       H  0.12823456  0.62355739  0.89303094     0.19300
H2608       H  0.05560984  0.63395748  0.89824247     0.12700
C2609       C  0.25585613  0.62731949  0.86044246     0.16500
C2610       C  0.26811002  0.63055590  0.86777175    -0.32500
C2611       C  0.28086600  0.62616439  0.86181099     0.20900
C2612       C  0.28139317  0.61845910  0.84935847     0.03100
C2613       C  0.26914616  0.61530646  0.84197445    -0.22200
C2614       C  0.25642588  0.62011904  0.84769321     0.12300
S2615       S  0.23938984  0.63221060  0.86560960    -0.05900
C2616       C  0.23327149  0.62497721  0.85016469    -0.09300
C2617       C  0.24350179  0.61886800  0.84167722    -0.26000
S2618       S  0.29790235  0.61400231  0.84395855    -0.03100
C2619       C  0.30418110  0.62307237  0.85834187    -0.16600
C2620       C  0.29392513  0.62897476  0.86693118    -0.14600
H2621       H  0.26773867  0.63650737  0.87753690     0.20800
H2622       H  0.26954076  0.60962039  0.83205245     0.16800
H2623       H  0.24159006  0.61391174  0.83156701     0.19300
H2624       H  0.29593036  0.63504742  0.87639135     0.12700
C2625       C  0.15950768  0.65144502  0.74197524     0.16500
C2626       C  0.16183496  0.65849520  0.72925365    -0.32500
C2627       C  0.15539709  0.65322015  0.71712611     0.20900
C2628       C  0.14707459  0.64134390  0.71753515     0.03100
C2629       C  0.14442435  0.63447119  0.73039367    -0.22200
C2630       C  0.15080119  0.63985028  0.74261476     0.12300
S2631       S  0.16724191  0.65571120  0.75755636    -0.05900
C2632       C  0.15848600  0.64192448  0.76520802    -0.09300
C2633       C  0.14995965  0.63447245  0.75606292    -0.26000
S2634       S  0.14101433  0.63621004  0.70132371    -0.03100
C2635       C  0.14950414  0.65045798  0.69410177    -0.16600
C2636       C  0.15666511  0.65857075  0.70380233    -0.14600
H2637       H  0.16859770  0.66757851  0.72877976     0.20800
H2638       H  0.13789289  0.62522068  0.73081492     0.16800
H2639       H  0.14396843  0.62529188  0.75897050     0.19300
H2640       H  0.16276201  0.66777304  0.70118673     0.12700
C2641       C  0.60257489  0.14618304  0.61226137     0.16500
C2642       C  0.58826269  0.14843087  0.61020387    -0.32500
C2643       C  0.58314424  0.14733592  0.59643065     0.20900
C2644       C  0.59191390  0.14432949  0.58511845     0.03100
C2645       C  0.60631509  0.14217368  0.58717010    -0.22200
C2646       C  0.61143268  0.14308762  0.60103764     0.12300
S2647       S  0.61053665  0.14654563  0.62827103    -0.05900
C2648       C  0.62609889  0.14240451  0.61994491    -0.09300
C2649       C  0.62500646  0.14092089  0.60537977    -0.26000
S2650       S  0.58345648  0.14306419  0.56929409    -0.03100
C2651       C  0.56792953  0.14638442  0.57808430    -0.16600
C2652       C  0.56943565  0.14855743  0.59247952    -0.14600
H2653       H  0.58135201  0.15069255  0.61902925     0.20800
H2654       H  0.61317972  0.13966055  0.57838079     0.16800
H2655       H  0.63360134  0.13824406  0.59837880     0.19300
H2656       H  0.56089791  0.15063665  0.59975558     0.12700
C2657       C  0.65914450  0.43685001  0.85546169     0.16500
C2658       C  0.65636374  0.45125341  0.85383786    -0.32500
C2659       C  0.64247391  0.45584143  0.85509951     0.20900
C2660       C  0.63174395  0.44652593  0.85787004     0.03100
C2661       C  0.63455380  0.43204203  0.85960408    -0.22200
C2662       C  0.64852590  0.42741380  0.85830175     0.12300
S2663       S  0.67531874  0.42937970  0.85410066    -0.05900
C2664       C  0.66790439  0.41320086  0.85734931    -0.09300
C2665       C  0.65349931  0.41376921  0.85942855    -0.26000
S2666       S  0.61557070  0.45440994  0.85884587    -0.03100
C2667       C  0.62342359  0.47041362  0.85559588    -0.16600
C2668       C  0.63780718  0.46946221  0.85383544    -0.14600
H2669       H  0.66469794  0.45858844  0.85162502     0.20800
H2670       H  0.62622027  0.42470753  0.86179783     0.16800
H2671       H  0.64702203  0.40472970  0.86160469     0.19300
H2672       H  0.64456175  0.47832348  0.85174421     0.12700
C2673       C  0.69004964  0.11151537  0.93671918     0.16500
C2674       C  0.69106530  0.10847608  0.95111475    -0.32500
C2675       C  0.69168359  0.09429744  0.95508464     0.20900
C2676       C  0.69141368  0.08352044  0.94520060     0.03100
C2677       C  0.69048878  0.08657627  0.93070846    -0.22200
C2678       C  0.68975115  0.10083564  0.92671723     0.12300
S2679       S  0.68878956  0.12807638  0.92995448    -0.05900
C2680       C  0.68774836  0.12069516  0.91335409    -0.09300
C2681       C  0.68845231  0.10605381  0.91324006    -0.26000
S2682       S  0.69195897  0.06698401  0.95245286    -0.03100
C2683       C  0.69247758  0.07476387  0.96894653    -0.16600
C2684       C  0.69233062  0.08937382  0.96861164    -0.14600
H2685       H  0.69119747  0.11683281  0.95893049     0.20800
H2686       H  0.69018175  0.07821672  0.92290718     0.16800
H2687       H  0.68790945  0.09956210  0.90384260     0.19300
H2688       H  0.69250300  0.09612445  0.97785316     0.12700
C2689       C  0.67821066  0.25169314  0.86208049     0.16500
C2690       C  0.67666349  0.26577531  0.85791519    -0.32500
C2691       C  0.68358146  0.27610093  0.86580955     0.20900
C2692       C  0.69184718  0.27252210  0.87723080     0.03100
C2693       C  0.69325146  0.25845186  0.88151097    -0.22200
C2694       C  0.68618624  0.24814500  0.87371501     0.12300
S2695       S  0.67092455  0.23763453  0.85368313    -0.05900
C2696       C  0.67849712  0.22681303  0.86608974    -0.09300
C2697       C  0.68629680  0.23388730  0.87614748    -0.26000
S2698       S  0.69995279  0.28649726  0.88497094    -0.03100
C2699       C  0.69189455  0.29734859  0.87289413    -0.16600
C2700       C  0.68343165  0.29036092  0.86337121    -0.14600
H2701       H  0.67039087  0.26855637  0.84885210     0.20800
H2702       H  0.69965600  0.25565131  0.89047152     0.16800
H2703       H  0.69195503  0.22886525  0.88463389     0.19300
H2704       H  0.67779031  0.29539571  0.85487628     0.12700
C2705       C  0.67502150  0.12796443  0.77418558     0.16500
C2706       C  0.67914921  0.12165634  0.76136407    -0.32500
C2707       C  0.67341838  0.12706359  0.74884570     0.20900
C2708       C  0.66378034  0.13801465  0.74913353     0.03100
C2709       C  0.65967511  0.14428141  0.76189413    -0.22200
C2710       C  0.66562068  0.13911587  0.77432674     0.12300
S2711       S  0.68115533  0.12352926  0.79055577    -0.05900
C2712       C  0.67122700  0.13712584  0.79752007    -0.09300
C2713       C  0.66344220  0.14439750  0.78761011    -0.26000
S2714       S  0.65809142  0.14320616  0.73293303    -0.03100
C2715       C  0.66903219  0.13072476  0.72553623    -0.16600
C2716       C  0.67653187  0.12286379  0.73528343    -0.14600
H2717       H  0.68669692  0.11311863  0.76113111     0.20800
H2718       H  0.65235663  0.15302650  0.76210079     0.16800
H2719       H  0.65667677  0.15329062  0.78995833     0.19300
H2720       H  0.68394095  0.11460928  0.73259885     0.12700
C2721       C  0.97369568  0.34935790  0.89965517     0.16500
C2722       C  0.98139545  0.34999538  0.91224752    -0.32500
C2723       C  0.99598329  0.35134357  0.91114476     0.20900
C2724       C  0.00251256  0.35203802  0.89807214     0.03100
C2725       C  0.99485625  0.35135278  0.88555017    -0.22200
C2726       C  0.98034865  0.34998324  0.88665426     0.12300
S2727       S  0.95592426  0.34792286  0.89857072    -0.05900
C2728       C  0.95753180  0.34810928  0.88040873    -0.09300
C2729       C  0.97118868  0.34923017  0.87562253    -0.26000
S2730       S  0.02015507  0.35378742  0.89877573    -0.03100
C2731       C  0.01893605  0.35356687  0.91694066    -0.16600
C2732       C  0.00539032  0.35218797  0.92208019    -0.14600
H2733       H  0.97624817  0.34950758  0.92242813     0.20800
H2734       H  0.99999697  0.35189953  0.87536757     0.16800
H2735       H  0.97430386  0.34963587  0.86464304     0.19300
H2736       H  0.00258373  0.35186164  0.93315270     0.12700
C2737       C  0.79751049  0.37610958  0.85978820     0.16500
C2738       C  0.81034052  0.37936813  0.85350021    -0.32500
C2739       C  0.82230325  0.37264551  0.85871532     0.20900
C2740       C  0.82164948  0.36341952  0.86999256     0.03100
C2741       C  0.80881012  0.36025492  0.87638360    -0.22200
C2742       C  0.79676984  0.36664664  0.87086425     0.12300
S2743       S  0.78170575  0.38231340  0.85424455    -0.05900
C2744       C  0.77393984  0.37171845  0.86668559    -0.09300
C2745       C  0.78325471  0.36408864  0.87487198    -0.26000
S2746       S  0.83736377  0.35601217  0.87436707    -0.03100
C2747       C  0.84477339  0.36513648  0.86057166    -0.16600
C2748       C  0.83551157  0.37365982  0.85327994    -0.14600
H2749       H  0.81091777  0.38646911  0.84460319     0.20800
H2750       H  0.80817554  0.35277651  0.88495843     0.16800
H2751       H  0.78029764  0.35677392  0.88307964     0.19300
H2752       H  0.83822460  0.38006326  0.84425683     0.12700
C2753       C  0.90615172  0.38715519  0.53892153     0.16500
C2754       C  0.90783153  0.37475343  0.54671646    -0.32500
C2755       C  0.90716402  0.37574977  0.56146870     0.20900
C2756       C  0.90486260  0.38852766  0.56821647     0.03100
C2757       C  0.90317010  0.40098994  0.56039311    -0.22200
C2758       C  0.90390515  0.40000035  0.54557588     0.12300
S2759       S  0.90670167  0.38801358  0.52095814    -0.05900
C2760       C  0.90394417  0.40593807  0.52223378    -0.09300
C2761       C  0.90264323  0.41086303  0.53603675    -0.26000
S2762       S  0.90441107  0.38735652  0.58625095    -0.03100
C2763       C  0.90739600  0.36945804  0.58465746    -0.16600
C2764       C  0.90863211  0.36482513  0.57079226    -0.14600
H2765       H  0.90962067  0.36474224  0.54149327     0.20800
H2766       H  0.90140072  0.41100165  0.56561840     0.16800
H2767       H  0.90086697  0.42176735  0.53893354     0.19300
H2768       H  0.91049496  0.35401493  0.56763260     0.12700
C2769       C  0.90875892  0.35915202  0.72394077     0.16500
C2770       C  0.90424327  0.36482866  0.73692124    -0.32500
C2771       C  0.91097715  0.36013839  0.74921991     0.20900
C2772       C  0.92192637  0.35053556  0.74856410     0.03100
C2773       C  0.92643955  0.34493855  0.73565303    -0.22200
C2774       C  0.91950679  0.34932129  0.72346141     0.12300
S2775       S  0.90160190  0.36274003  0.70778088    -0.05900
C2776       C  0.91298044  0.35053298  0.70050237    -0.09300
C2777       C  0.92192723  0.34435516  0.71012808    -0.26000
S2778       S  0.92858557  0.34587976  0.76453723    -0.03100
C2779       C  0.91628749  0.35669581  0.77235457    -0.16600
C2780       C  0.90766307  0.36370456  0.76290255    -0.14600
H2781       H  0.89565024  0.37228785  0.73744762     0.20800
H2782       H  0.93479186  0.33719420  0.73516253     0.16800
H2783       H  0.92971773  0.33642236  0.70754275     0.19300
H2784       H  0.89927784  0.37083845  0.76587456     0.12700
C2785       C  0.92494165  0.05148785  0.63309156     0.16500
C2786       C  0.92782644  0.03700391  0.63343163    -0.32500
C2787       C  0.94183851  0.03269012  0.63257603     0.20900
C2788       C  0.95256188  0.04233513  0.63136135     0.03100
C2789       C  0.94966003  0.05687603  0.63095723    -0.22200
C2790       C  0.93559596  0.06122037  0.63188954     0.12300
S2791       S  0.90862414  0.05874066  0.63418044    -0.05900
C2792       C  0.91608908  0.07518408  0.63304150    -0.09300
C2793       C  0.93057840  0.07486279  0.63184677    -0.26000
S2794       S  0.96887975  0.03480352  0.63060860    -0.03100
C2795       C  0.96113633  0.01849634  0.63198992    -0.16600
C2796       C  0.94666337  0.01907282  0.63292212    -0.14600
H2797       H  0.91949511  0.02941163  0.63440678     0.20800
H2798       H  0.95799660  0.06446717  0.63004202     0.16800
H2799       H  0.93710209  0.08408616  0.63100436     0.19300
H2800       H  0.93997187  0.00997629  0.63386798     0.12700
C2801       C  0.89996175  0.21678860  0.61858878     0.16500
C2802       C  0.89955988  0.23086682  0.61417412    -0.32500
C2803       C  0.90625650  0.24091502  0.62260004     0.20900
C2804       C  0.91292415  0.23713055  0.63497731     0.03100
C2805       C  0.91351182  0.22300312  0.63928889    -0.22200
C2806       C  0.90696197  0.21291132  0.63075493     0.12300
S2807       S  0.89188062  0.20320203  0.61017907    -0.05900
C2808       C  0.89821328  0.19206165  0.62298924    -0.09300
C2809       C  0.90617257  0.19866299  0.63322978    -0.26000
S2810       S  0.91985861  0.25099211  0.64402925    -0.03100
C2811       C  0.91396558  0.26199822  0.63086219    -0.16600
C2812       C  0.90692177  0.25513912  0.62011641    -0.14600
H2813       H  0.89412910  0.23388028  0.60464191     0.20800
H2814       H  0.91874796  0.22002547  0.64894163     0.16800
H2815       H  0.91067167  0.19341311  0.64227244     0.19300
H2816       H  0.90228792  0.26030235  0.61109778     0.12700
C2817       C  0.76532540  0.11421720  0.64020048     0.16500
C2818       C  0.77924502  0.11042386  0.64276954    -0.32500
C2819       C  0.78956354  0.11609014  0.63396905     0.20900
C2820       C  0.78617599  0.12515346  0.62306138     0.03100
C2821       C  0.77218107  0.12870416  0.62028039    -0.22200
C2822       C  0.76182674  0.12304293  0.62913212     0.12300
S2823       S  0.75151565  0.10917931  0.65034180    -0.05900
C2824       C  0.74074216  0.11895592  0.63957445    -0.09300
C2825       C  0.74766569  0.12568612  0.62860794    -0.26000
S2826       S  0.80035609  0.13173336  0.61431243    -0.03100
C2827       C  0.81093065  0.12205789  0.62538536    -0.16600
C2828       C  0.80371596  0.11411394  0.63522267    -0.14600
H2829       H  0.78194652  0.10360518  0.65148845     0.20800
H2830       H  0.76951390  0.13584476  0.61181594     0.16800
H2831       H  0.74269772  0.13251534  0.62098513     0.19300
H2832       H  0.80858007  0.10767410  0.64324360     0.12700
C2833       C  0.88584325  0.60568076  0.55672418     0.16500
C2834       C  0.88318816  0.60206713  0.54263445    -0.32500
C2835       C  0.88654051  0.58834074  0.53818843     0.20900
C2836       C  0.89210224  0.57851592  0.54738254     0.03100
C2837       C  0.89468193  0.58211954  0.56155397    -0.22200
C2838       C  0.89148612  0.59595372  0.56598209     0.12300
S2839       S  0.88310289  0.62199663  0.56388534    -0.05900
C2840       C  0.88970832  0.61582051  0.57960638    -0.09300
C2841       C  0.89367137  0.60169736  0.57917059    -0.26000
S2842       S  0.89575389  0.56251412  0.53966154    -0.03100
C2843       C  0.88994370  0.56924592  0.52383568    -0.16600
C2844       C  0.88528726  0.58311261  0.52474644    -0.14600
H2845       H  0.87893754  0.60972428  0.53536359     0.20800
H2846       H  0.89920453  0.57454918  0.56874705     0.16800
H2847       H  0.89819861  0.59600923  0.58791938     0.19300
H2848       H  0.88140410  0.58918384  0.51593240     0.12700
C2849       C  0.92425887  0.93506949  0.63655006     0.16500
C2850       C  0.92740793  0.94943753  0.63712249    -0.32500
C2851       C  0.94141252  0.95333455  0.63550860     0.20900
C2852       C  0.95188453  0.94339650  0.63342560     0.03100
C2853       C  0.94871527  0.92897900  0.63278042    -0.22200
C2854       C  0.93465990  0.92506436  0.63438897     0.12300
S2855       S  0.90791571  0.92828620  0.63844627    -0.05900
C2856       C  0.91506067  0.91170166  0.63630660    -0.09300
C2857       C  0.92943121  0.91161185  0.63418593    -0.26000
S2858       S  0.96823980  0.95043122  0.63176029    -0.03100
C2859       C  0.96083076  0.96693676  0.63378293    -0.16600
C2860       C  0.94645730  0.96679042  0.63570995    -0.14600
H2861       H  0.91927488  0.95726252  0.63878431     0.20800
H2862       H  0.95684724  0.92115521  0.63112409     0.16800
H2863       H  0.93574463  0.90222378  0.63267162     0.19300
H2864       H  0.93997749  0.97608734  0.63713643     0.12700
C2865       C  0.90270751  0.77288338  0.62554118     0.16500
C2866       C  0.90834381  0.75999727  0.63004827    -0.32500
C2867       C  0.90270386  0.74758246  0.62440943     0.20900
C2868       C  0.89209076  0.74796617  0.61453449     0.03100
C2869       C  0.88640674  0.76083901  0.61008726    -0.22200
C2870       C  0.89187704  0.77323374  0.61590812     0.12300
S2871       S  0.90778414  0.78912729  0.63140337    -0.05900
C2872       C  0.89492206  0.79644390  0.62105045    -0.09300
C2873       C  0.88734152  0.78669719  0.61334531    -0.26000
S2874       S  0.88674009  0.73174742  0.60892703    -0.03100
C2875       C  0.89873295  0.72431014  0.62021882    -0.16600
C2876       C  0.90650065  0.73404861  0.62776281    -0.14600
H2877       H  0.91664923  0.75965409  0.63775831     0.20800
H2878       H  0.87795092  0.76117563  0.60254428     0.16800
H2879       H  0.87879251  0.78931007  0.60637249     0.19300
H2880       H  0.91450975  0.73138643  0.63533923     0.12700
C2881       C  0.64393880  0.56677149  0.86374025     0.16500
C2882       C  0.63122667  0.55950214  0.86214068    -0.32500
C2883       C  0.63180950  0.54471608  0.86071592     0.20900
C2884       C  0.64450764  0.53764019  0.86098113     0.03100
C2885       C  0.65710534  0.54485572  0.86263676    -0.22200
C2886       C  0.65653748  0.55953251  0.86394813     0.12300
S2887       S  0.64572150  0.58466250  0.86534109    -0.05900
C2888       C  0.66363246  0.58230438  0.86615477    -0.09300
C2889       C  0.66779455  0.56831021  0.86533868    -0.26000
S2890       S  0.64332000  0.51988658  0.85906184    -0.03100
C2891       C  0.62542863  0.52168637  0.85785424    -0.16600
C2892       C  0.62073288  0.53557962  0.85891756    -0.14600
H2893       H  0.62136579  0.56511805  0.86191868     0.20800
H2894       H  0.66697683  0.53924567  0.86278538     0.16800
H2895       H  0.67852140  0.56469005  0.86564123     0.19300
H2896       H  0.60988716  0.53880129  0.85844303     0.12700
C2897       C  0.96954222  0.62834287  0.89629281     0.16500
C2898       C  0.97652319  0.62731206  0.90931887    -0.32500
C2899       C  0.99107066  0.62942496  0.90940443     0.20900
C2900       C  0.99820968  0.63243284  0.89702278     0.03100
C2901       C  0.99127676  0.63341995  0.88407435    -0.22200
C2902       C  0.97682182  0.63129730  0.88399374     0.12300
S2903       S  0.95196844  0.62626251  0.89381584    -0.05900
C2904       C  0.95448594  0.62939274  0.87601992    -0.09300
C2905       C  0.96830811  0.63186965  0.87238145    -0.26000
S2906       S  0.01569320  0.63452293  0.89904442    -0.03100
C2907       C  0.01365808  0.63123431  0.91684800    -0.16600
C2908       C  0.99990418  0.62873794  0.92090167    -0.14600
H2909       H  0.97087055  0.62495732  0.91893737     0.20800
H2910       H  0.99693739  0.63572540  0.87444520     0.16800
H2911       H  0.97197898  0.63407436  0.86180427     0.19300
H2912       H  0.99659102  0.62634796  0.93156048     0.12700
C2913       C  0.92155283  0.63980796  0.74161990     0.16500
C2914       C  0.92638629  0.64546885  0.72880098    -0.32500
C2915       C  0.91993247  0.64098916  0.71625942     0.20900
C2916       C  0.90937595  0.63107794  0.71647093     0.03100
C2917       C  0.90447299  0.62554792  0.72926138    -0.22200
C2918       C  0.91069631  0.63023947  0.74178846     0.12300
S2919       S  0.92778483  0.64392458  0.75805000    -0.05900
C2920       C  0.91537895  0.63290967  0.76522938    -0.09300
C2921       C  0.90705177  0.62635271  0.75524909    -0.26000
S2922       S  0.90294081  0.62688937  0.70020477    -0.03100
C2923       C  0.91425611  0.63892733  0.69296578    -0.16600
C2924       C  0.92269476  0.64563733  0.70278663    -0.14600
H2925       H  0.93469525  0.65314737  0.72862435     0.20800
H2926       H  0.89603544  0.61800913  0.72945185     0.16800
H2927       H  0.89874108  0.61906699  0.75769750     0.19300
H2928       H  0.93034059  0.65358756  0.70021459     0.12700
C2929       C  0.81704969  0.61510612  0.85244477     0.16500
C2930       C  0.80301993  0.61111765  0.85132260    -0.32500
C2931       C  0.79308950  0.61859230  0.85936261     0.20900
C2932       C  0.79696623  0.62961039  0.86810991     0.03100
C2933       C  0.81105753  0.63339340  0.86949595    -0.22200
C2934       C  0.82100719  0.62585910  0.86148811     0.12300
S2935       S  0.83045183  0.60800057  0.84277202    -0.05900
C2936       C  0.84160858  0.61944375  0.85112828    -0.09300
C2937       C  0.83516220  0.62824236  0.86095661    -0.26000
S2938       S  0.78323502  0.63792506  0.87626298    -0.03100
C2939       C  0.77213949  0.62629046  0.86799244    -0.16600
C2940       C  0.77889142  0.61653014  0.85937875    -0.14600
H2941       H  0.79993659  0.60271784  0.84424347     0.20800
H2942       H  0.81410141  0.64201604  0.87631346     0.16800
H2943       H  0.84045282  0.63633391  0.86693773     0.19300
H2944       H  0.77366608  0.60858312  0.85314829     0.12700
C2945       C  0.61210988  0.86512377  0.60133051     0.16500
C2946       C  0.60490129  0.86273352  0.58861060    -0.32500
C2947       C  0.59021697  0.86384762  0.58887374     0.20900
C2948       C  0.58320164  0.86741366  0.60123212     0.03100
C2949       C  0.59036600  0.86993383  0.61380548    -0.22200
C2950       C  0.60490789  0.86856261  0.61360005     0.12300
S2951       S  0.62980529  0.86364989  0.60361190    -0.05900
C2952       C  0.62733937  0.86741723  0.62131754    -0.09300
C2953       C  0.61351986  0.86989213  0.62502357    -0.26000
S2954       S  0.56554429  0.86769213  0.59985481    -0.03100
C2955       C  0.56731089  0.86278928  0.58238681    -0.16600
C2956       C  0.58110555  0.86124838  0.57789443    -0.14600
H2957       H  0.61045578  0.85982803  0.57904600     0.20800
H2958       H  0.58478767  0.87250320  0.62345365     0.16800
H2959       H  0.60988197  0.87237428  0.63558067     0.19300
H2960       H  0.58426287  0.85800578  0.56738375     0.12700
C2961       C  0.76479726  0.87854797  0.65123126     0.16500
C2962       C  0.77894389  0.88092465  0.65399861    -0.32500
C2963       C  0.78879095  0.87511960  0.64462271     0.20900
C2964       C  0.78473278  0.86725028  0.63301036     0.03100
C2965       C  0.77055333  0.86508255  0.63009991    -0.22200
C2966       C  0.76068702  0.87090939  0.63948463     0.12300
S2967       S  0.75136203  0.88415828  0.66172309    -0.05900
C2968       C  0.73998136  0.87625579  0.65014270    -0.09300
C2969       C  0.74641950  0.86965333  0.63872844    -0.26000
S2970       S  0.79831635  0.86041505  0.62339495    -0.03100
C2971       C  0.80957879  0.86836855  0.63505547    -0.16600
C2972       C  0.80303331  0.87594517  0.64575540    -0.14600
H2973       H  0.78214668  0.88686156  0.66320677     0.20800
H2974       H  0.76735840  0.85891482  0.62104534     0.16800
H2975       H  0.74099988  0.86396212  0.63051164     0.19300
H2976       H  0.80840115  0.88141560  0.65416102     0.12700
C2977       C  0.69599299  0.89231408  0.95816102     0.16500
C2978       C  0.69486543  0.87961955  0.95067891    -0.32500
C2979       C  0.69116215  0.88031264  0.93642363     0.20900
C2980       C  0.68896845  0.89310833  0.92979564     0.03100
C2981       C  0.69021061  0.90587163  0.93729115    -0.22200
C2982       C  0.69364536  0.90517751  0.95169603     0.12300
S2983       S  0.69947946  0.89344546  0.97569032    -0.05900
C2984       C  0.69750746  0.91150142  0.97461085    -0.09300
C2985       C  0.69456401  0.91630228  0.96109636    -0.26000
S2986       S  0.68430486  0.89155841  0.91244956    -0.03100
C2987       C  0.68509753  0.87348033  0.91423704    -0.16600
C2988       C  0.68894783  0.86905365  0.92760519    -0.14600
H2989       H  0.69647850  0.86960000  0.95585223     0.20800
H2990       H  0.68827402  0.91587254  0.93219724     0.16800
H2991       H  0.69274789  0.92722194  0.95839377     0.19300
H2992       H  0.68998208  0.85816589  0.93078236     0.12700
C2993       C  0.66617500  0.74035384  0.87218564     0.16500
C2994       C  0.66452876  0.72598820  0.86912080    -0.32500
C2995       C  0.67289378  0.71633473  0.87649158     0.20900
C2996       C  0.68241214  0.72081024  0.88650427     0.03100
C2997       C  0.68375533  0.73510915  0.88985183    -0.22200
C2998       C  0.67547368  0.74474426  0.88243420     0.12300
S2999       S  0.65789756  0.75382438  0.86364851    -0.05900
C3000       C  0.66695766  0.76547474  0.87412080    -0.09300
C3001       C  0.67584921  0.75911184  0.88370144    -0.26000
S3002       S  0.69259804  0.70771439  0.89325663    -0.03100
C3003       C  0.68392159  0.69601322  0.88256153    -0.16600
C3004       C  0.67353494  0.70202831  0.87436921    -0.14600
H3005       H  0.65736929  0.72252097  0.86102825     0.20800
H3006       H  0.69128017  0.73861712  0.89757978     0.16800
H3007       H  0.68259148  0.76469979  0.89091549     0.19300
H3008       H  0.66734802  0.69636681  0.86670847     0.12700
C3009       C  0.65372880  0.85525045  0.77754831     0.16500
C3010       C  0.64950383  0.85459700  0.76340894    -0.32500
C3011       C  0.65737655  0.86205426  0.75343216     0.20900
C3012       C  0.66889250  0.86987152  0.75740241     0.03100
C3013       C  0.67292530  0.87078543  0.77157148    -0.22200
C3014       C  0.66509426  0.86328708  0.78152899     0.12300
S3015       S  0.64630659  0.84601421  0.79102473    -0.05900
C3016       C  0.65857470  0.85312676  0.80216464    -0.09300
C3017       C  0.66779807  0.86228295  0.79569618    -0.26000
S3018       S  0.67759407  0.87743348  0.74368658    -0.03100
C3019       C  0.66556798  0.87008394  0.73240912    -0.16600
C3020       C  0.65532776  0.86224026  0.73909240    -0.14600
H3021       H  0.64068852  0.84824446  0.76026983     0.20800
H3022       H  0.68199244  0.87679830  0.77465163     0.16800
H3023       H  0.67640660  0.86741644  0.80094363     0.19300
H3024       H  0.64707728  0.85664114  0.73373771     0.12700
loop_ 
_geom_bond_atom_site_label_1 
_geom_bond_atom_site_label_2 
_geom_bond_distance 
_geom_bond_site_symmetry_2 
_ccdc_geom_bond_type 
N1            N2   1.323       .  A
N1            C5   1.348       .  A
N1           Cu9   2.086       .  S
N2            C3   1.344       .  A
N2           Cu8   2.073       .  S
C3            C4   1.382       .  A
C3            H6   1.082       .  S
C4            C5   1.386       .  A
C4         C3016   1.474       .  S
C5            H7   1.081       .  S
Cu8          N11   2.074       .  S
Cu9          N19   2.086       .  S
Cu10         N12   2.084       .  S
Cu10         N18   2.085       .  S
N11          N12   1.322       .  A
N11          C15   1.346       .  A
N12          C13   1.346       .  A
C13          C14   1.386       .  A
C13          H16   1.082       .  S
C14          C15   1.384       .  A
C14        C3000   1.477       .  S
C15          H17   1.082       .  S
N18          N19   1.323       .  A
N18          C22   1.347       .  A
N19          C20   1.348       .  A
C20          C21   1.386       .  A
C20          H23   1.082       .  S
C21          C22   1.388       .  A
C21        C2987   1.483       .  S
C22          H24   1.081       .  S
N25          N26   1.321       .  A
N25          C29   1.351       .  A
N25         Cu33   2.092       .  S
N26          C27   1.341       .  A
N26         Cu32   2.059       .  S
C27          C28   1.381       .  A
C27          H30   1.082       .  S
C28          C29   1.390       .  A
C28        C2968   1.478       .  S
C29          H31   1.082       .  S
Cu32         N35   2.059       .  S
Cu33         N43   2.094       .  S
Cu34         N36   2.091       .  S
Cu34         N42   2.093       .  S
N35          N36   1.321       .  A
N35          C39   1.341       .  A
N36          C37   1.350       .  A
C37          C38   1.391       .  A
C37          H40   1.082       .  S
C38          C39   1.381       .  A
C38        C3019   1.478       .  S
C39          H41   1.082       .  S
N42          N43   1.325       .  A
N42          C46   1.346       .  A
N43          C44   1.349       .  A
C44          C45   1.386       .  A
C44          H47   1.082       .  S
C45          C46   1.387       .  A
C45        C2952   1.483       .  S
C46          H48   1.081       .  S
N49          N50   1.323       .  A
N49          C53   1.350       .  A
N49         Cu57   2.090       .  S
N50          C51   1.345       .  A
N50         Cu56   2.080       .  S
C51          C52   1.383       .  A
C51          H54   1.082       .  S
C52          C53   1.388       .  A
C52        C2936   1.478       .  S
C53          H55   1.081       .  S
Cu56         N59   2.080       .  S
Cu57         N67   2.091       .  S
Cu58         N60   2.101       .  S
Cu58         N66   2.102       .  S
N59          N60   1.323       .  A
N59          C63   1.346       .  A
N60          C61   1.351       .  A
C61          C62   1.390       .  A
C61          H64   1.082       .  S
C62          C63   1.386       .  A
C62        C2920   1.485       .  S
C63          H65   1.082       .  S
N66          N67   1.324       .  A
N66          C70   1.349       .  A
N67          C68   1.349       .  A
C68          C69   1.386       .  A
C68          H71   1.081       .  S
C69          C70   1.390       .  A
C69        C2904   1.487       .  S
C70          H72   1.081       .  S
N73          N74   1.322       .  A
N73          C77   1.349       .  A
N73         Cu81   2.085       .  S
N74          C75   1.343       .  A
N74         Cu80   2.068       .  S
C75          C76   1.381       .  A
C75          H78   1.082       .  S
C76          C77   1.387       .  A
C76        C3003   1.474       .  S
C77          H79   1.082       .  S
Cu80         N83   2.068       .  S
Cu81         N91   2.086       .  S
Cu82         N84   2.107       .  S
Cu82         N90   2.108       .  S
N83          N84   1.322       .  A
N83          C87   1.344       .  A
N84          C85   1.352       .  A
C85          C86   1.392       .  A
C85          H88   1.081       .  S
C86          C87   1.382       .  A
C86        C2939   1.482       .  S
C87          H89   1.082       .  S
N90          N91   1.325       .  A
N90          C94   1.350       .  A
N91          C92   1.348       .  A
C92          C93   1.385       .  A
C92          H95   1.081       .  S
C93          C94   1.391       .  A
C93        C2888   1.488       .  S
C94          H96   1.081       .  S
N97          N98   1.323       .  A
N97         C101   1.350       .  A
N97        Cu105   2.094       .  S
N98          C99   1.343       .  A
N98        Cu104   2.071       .  S
C99         C100   1.382       .  A
C99         H102   1.082       .  S
C100        C101   1.389       .  A
C100       C2872   1.479       .  S
C101        H103   1.082       .  S
Cu104       N107   2.071       .  S
Cu105       N115   2.094       .  S
Cu106       N108   2.078       .  S
Cu106       N114   2.080       .  S
N107        N108   1.321       .  A
N107        C111   1.344       .  A
N108        C109   1.347       .  A
C109        C110   1.387       .  A
C109        H112   1.082       .  S
C110        C111   1.383       .  A
C110       C2971   1.475       .  S
C111        H113   1.082       .  S
N114        N115   1.324       .  A
N114        C118   1.344       .  A
N115        C116   1.349       .  A
C116        C117   1.388       .  A
C116        H119   1.082       .  S
C117        C118   1.384       .  A
C117       C2856   1.481       .  S
C118        H120   1.082       .  S
N121        N122   1.323       .  A
N121        C125   1.350       .  A
N121       Cu129   2.103       .  S
N122        C123   1.347       .  A
N122       Cu128   2.078       .  S
C123        C124   1.384       .  A
C123        H126   1.082       .  S
C124        C125   1.389       .  A
C124       C2923   1.482       .  S
C125        H127   1.082       .  S
Cu128       N131   2.078       .  S
Cu129       N139   2.103       .  S
Cu130       N132   2.088       .  S
Cu130       N138   2.088       .  S
N131        N132   1.322       .  A
N131        C135   1.345       .  A
N132        C133   1.349       .  A
C133        C134   1.388       .  A
C133        H136   1.082       .  S
C134        C135   1.385       .  A
C134       C2875   1.481       .  S
C135        H137   1.082       .  S
N138        N139   1.324       .  A
N138        C142   1.346       .  A
N139        C140   1.352       .  A
C140        C141   1.390       .  A
C140        H143   1.082       .  S
C141        C142   1.386       .  A
C141       C2840   1.487       .  S
C142        H144   1.082       .  S
N145        N146   1.324       .  A
N145        C149   1.353       .  A
N145       Cu153   2.105       .  S
N146        C147   1.343       .  A
N146       Cu152   2.071       .  S
C147        C148   1.379       .  A
C147        H150   1.082       .  S
C148        C149   1.390       .  A
C148       C2808   1.478       .  S
C149        H151   1.081       .  S
Cu152       N155   2.071       .  S
Cu153       N163   2.106       .  S
Cu154       N156   2.087       .  S
Cu154       N162   2.088       .  S
N155        N156   1.321       .  A
N155        C159   1.345       .  A
N156        C157   1.349       .  A
C157        C158   1.389       .  A
C157        H160   1.082       .  S
C158        C159   1.384       .  A
C158       C2827   1.479       .  S
C159        H161   1.082       .  S
N162        N163   1.325       .  A
N162        C166   1.345       .  A
N163        C164   1.352       .  A
C164        C165   1.391       .  A
C164        H167   1.082       .  S
C165        C166   1.385       .  A
C165       C2792   1.487       .  S
C166        H168   1.082       .  S
N169        N170   1.322       .  A
N169        C173   1.352       .  A
N169       Cu177   2.091       .  S
N170        C171   1.340       .  A
N170       Cu176   2.064       .  S
C171        C172   1.381       .  A
C171        H174   1.082       .  S
C172        C173   1.389       .  A
C172       C2776   1.476       .  S
C173        H175   1.082       .  S
Cu176       N179   2.064       .  S
Cu177       N187   2.093       .  S
Cu178       N180   2.092       .  S
Cu178       N186   2.093       .  S
N179        N180   1.321       .  A
N179        C183   1.344       .  A
N180        C181   1.349       .  A
C181        C182   1.390       .  A
C181        H184   1.081       .  S
C182        C183   1.383       .  A
C182       C2811   1.480       .  S
C183        H185   1.082       .  S
N186        N187   1.325       .  A
N186        C190   1.347       .  A
N187        C188   1.349       .  A
C188        C189   1.387       .  A
C188        H191   1.082       .  S
C189        C190   1.387       .  A
C189       C2763   1.485       .  S
C190        H192   1.081       .  S
N193        N194   1.322       .  A
N193        C197   1.349       .  A
N193       Cu201   2.086       .  S
N194        C195   1.342       .  A
N194       Cu200   2.067       .  S
C195        C196   1.382       .  A
C195        H198   1.082       .  S
C196        C197   1.387       .  A
C196       C2747   1.475       .  S
C197        H199   1.082       .  S
Cu200       N203   2.067       .  S
Cu201       N211   2.086       .  S
Cu202       N204   2.084       .  S
Cu202       N210   2.085       .  S
N203        N204   1.321       .  A
N203        C207   1.345       .  A
N204        C205   1.346       .  A
C205        C206   1.387       .  A
C205        H208   1.082       .  S
C206        C207   1.384       .  A
C206       C2779   1.477       .  S
C207        H209   1.082       .  S
N210        N211   1.323       .  A
N210        C214   1.346       .  A
N211        C212   1.348       .  A
C212        C213   1.386       .  A
C212        H215   1.082       .  S
C213        C214   1.387       .  A
C213       C2728   1.482       .  S
C214        H216   1.081       .  S
N217        N218   1.323       .  A
N217        C221   1.351       .  A
N217       Cu225   2.095       .  S
N218        C219   1.342       .  A
N218       Cu224   2.070       .  S
C219        C220   1.382       .  A
C219        H222   1.081       .  S
C220        C221   1.389       .  A
C220       C2712   1.479       .  S
C221        H223   1.082       .  S
Cu224       N227   2.069       .  S
Cu225       N235   2.096       .  S
Cu226       N228   2.086       .  S
Cu226       N234   2.087       .  S
N227        N228   1.321       .  A
N227        C231   1.344       .  A
N228        C229   1.349       .  A
C229        C230   1.389       .  A
C229        H232   1.082       .  S
C230        C231   1.384       .  A
C230       C2696   1.480       .  S
C231        H233   1.082       .  S
N234        N235   1.325       .  A
N234        C238   1.345       .  A
N235        C236   1.350       .  A
C236        C237   1.388       .  A
C236        H239   1.082       .  S
C237        C238   1.385       .  A
C237       C2680   1.483       .  S
C238        H240   1.082       .  S
N241        N242   1.324       .  A
N241        C245   1.352       .  A
N241       Cu249   2.109       .  S
N242        C243   1.343       .  A
N242       Cu248   2.065       .  S
C243        C244   1.379       .  A
C243        H246   1.082       .  S
C244        C245   1.391       .  A
C244       C2699   1.478       .  S
C245        H247   1.082       .  S
Cu248       N251   2.065       .  S
Cu249       N259   2.110       .  S
Cu250       N252   2.078       .  S
Cu250       N258   2.079       .  S
N251        N252   1.320       .  A
N251        C255   1.344       .  A
N252        C253   1.347       .  A
C253        C254   1.387       .  A
C253        H256   1.082       .  S
C254        C255   1.384       .  A
C254       C2744   1.475       .  S
C255        H257   1.082       .  S
N258        N259   1.324       .  A
N258        C262   1.343       .  A
N259        C260   1.355       .  A
C260        C261   1.393       .  A
C260        H263   1.082       .  S
C261        C262   1.383       .  A
C261       C2664   1.488       .  S
C262        H264   1.082       .  S
N265        N266   1.324       .  A
N265        C269   1.354       .  A
N265       Cu273   2.110       .  S
N266        C267   1.341       .  A
N266       Cu272   2.070       .  S
C267        C268   1.380       .  A
C267        H270   1.082       .  S
C268        C269   1.392       .  A
C268       C2824   1.482       .  S
C269        H271   1.081       .  S
Cu272       N275   2.069       .  S
Cu273       N283   2.110       .  S
Cu274       N276   2.075       .  S
Cu274       N282   2.076       .  S
N275        N276   1.319       .  A
N275        C279   1.346       .  A
N276        C277   1.345       .  A
C277        C278   1.387       .  A
C277        H280   1.082       .  S
C278        C279   1.386       .  A
C278       C2715   1.478       .  S
C279        H281   1.082       .  S
N282        N283   1.324       .  A
N282        C286   1.341       .  A
N283        C284   1.354       .  A
C284        C285   1.393       .  A
C284        H287   1.082       .  S
C285        C286   1.382       .  A
C285       C2648   1.485       .  S
C286        H288   1.082       .  S
N289        N290   1.321       .  A
N289        C293   1.350       .  A
N289       Cu297   2.082       .  S
N290        C291   1.344       .  A
N290       Cu296   2.074       .  S
C291        C292   1.383       .  A
C291        H294   1.082       .  S
C292        C293   1.386       .  A
C292       C2632   1.474       .  S
C293        H295   1.082       .  S
Cu296       N299   2.075       .  S
Cu297       N307   2.083       .  S
Cu298       N300   2.088       .  S
Cu298       N306   2.088       .  S
N299        N300   1.323       .  A
N299        C303   1.345       .  A
N300        C301   1.348       .  A
C301        C302   1.386       .  A
C301        H304   1.082       .  S
C302        C303   1.382       .  A
C302       C2616   1.474       .  S
C303        H305   1.082       .  S
N306        N307   1.324       .  A
N306        C310   1.350       .  A
N307        C308   1.342       .  A
C308        C309   1.383       .  A
C308        H311   1.082       .  S
C309        C310   1.387       .  A
C309       C2600   1.479       .  S
C310        H312   1.082       .  S
N313        N314   1.323       .  A
N313        C317   1.348       .  A
N313       Cu321   2.082       .  S
N314        C315   1.344       .  A
N314       Cu320   2.076       .  S
C315        C316   1.382       .  A
C315        H318   1.082       .  S
C316        C317   1.386       .  A
C316       C2584   1.474       .  S
C317        H319   1.082       .  S
Cu320       N323   2.076       .  S
Cu321       N331   2.082       .  S
Cu322       N324   2.080       .  S
Cu322       N330   2.081       .  S
N323        N324   1.322       .  A
N323        C327   1.346       .  A
N324        C325   1.347       .  A
C325        C326   1.384       .  A
C325        H328   1.082       .  S
C326        C327   1.384       .  A
C326       C2619   1.475       .  S
C327        H329   1.082       .  S
N330        N331   1.323       .  A
N330        C334   1.345       .  A
N331        C332   1.347       .  A
C332        C333   1.386       .  A
C332        H335   1.082       .  S
C333        C334   1.386       .  A
C333       C2568   1.480       .  S
C334        H336   1.082       .  S
N337        N338   1.321       .  A
N337        C341   1.347       .  A
N337       Cu345   2.076       .  S
N338        C339   1.344       .  A
N338       Cu344   2.067       .  S
C339        C340   1.383       .  A
C339        H342   1.082       .  S
C340        C341   1.387       .  A
C340       C2587   1.474       .  S
C341        H343   1.082       .  S
Cu344       N347   2.068       .  S
Cu345       N355   2.077       .  S
Cu346       N348   2.088       .  S
Cu346       N354   2.088       .  S
N347        N348   1.323       .  A
N347        C351   1.343       .  A
N348        C349   1.348       .  A
C349        C350   1.387       .  A
C349        H352   1.082       .  S
C350        C351   1.382       .  A
C350       C2552   1.475       .  S
C351        H353   1.082       .  S
N354        N355   1.323       .  A
N354        C358   1.349       .  A
N355        C356   1.342       .  A
C356        C357   1.383       .  A
C356        H359   1.082       .  S
C357        C358   1.387       .  A
C357       C2536   1.478       .  S
C358        H360   1.082       .  S
N361        N362   1.321       .  A
N361        C365   1.347       .  A
N361       Cu369   2.085       .  S
N362        C363   1.343       .  A
N362       Cu368   2.064       .  S
C363        C364   1.384       .  A
C363        H366   1.082       .  S
C364        C365   1.388       .  A
C364       C2520   1.478       .  S
C365        H367   1.082       .  S
Cu368       N371   2.063       .  S
Cu369       N379   2.086       .  S
Cu370       N372   2.085       .  S
Cu370       N378   2.087       .  S
N371        N372   1.321       .  A
N371        C375   1.341       .  A
N372        C373   1.349       .  A
C373        C374   1.388       .  A
C373        H376   1.082       .  S
C374        C375   1.382       .  A
C374       C2507   1.477       .  S
C375        H377   1.082       .  S
N378        N379   1.324       .  A
N378        C382   1.345       .  A
N379        C380   1.348       .  A
C380        C381   1.386       .  A
C380        H383   1.082       .  S
C381        C382   1.385       .  A
C381       C2488   1.480       .  S
C382        H384   1.082       .  S
N385        N386   1.322       .  A
N385        C389   1.348       .  A
N385       Cu393   2.090       .  S
N386        C387   1.343       .  A
N386       Cu392   2.062       .  S
C387        C388   1.380       .  A
C387        H390   1.082       .  S
C388        C389   1.387       .  A
C388       C2504   1.473       .  S
C389        H391   1.082       .  S
Cu392       N395   2.062       .  S
Cu393       N403   2.091       .  S
Cu394       N396   2.086       .  S
Cu394       N402   2.087       .  S
N395        N396   1.321       .  A
N395        C399   1.342       .  A
N396        C397   1.349       .  A
C397        C398   1.388       .  A
C397        H400   1.082       .  S
C398        C399   1.383       .  A
C398       C2555   1.478       .  S
C399        H401   1.081       .  S
N402        N403   1.324       .  A
N402        C406   1.344       .  A
N403        C404   1.350       .  A
C404        C405   1.388       .  A
C404        H407   1.082       .  S
C405        C406   1.387       .  A
C405       C2472   1.484       .  S
C406        H408   1.081       .  S
N409        N410   1.322       .  A
N409        C413   1.350       .  A
N409       Cu417   2.088       .  S
N410        C411   1.343       .  A
N410       Cu416   2.071       .  S
C411        C412   1.382       .  A
C411        H414   1.082       .  S
C412        C413   1.387       .  A
C412       C2635   1.476       .  S
C413        H415   1.082       .  S
Cu416       N419   2.069       .  S
Cu417       N427   2.090       .  S
Cu418       N420   2.092       .  S
Cu418       N426   2.094       .  S
N419        N420   1.322       .  A
N419        C423   1.345       .  A
N420        C421   1.349       .  A
C421        C422   1.387       .  A
C421        H424   1.082       .  S
C422        C423   1.381       .  A
C422       C2523   1.474       .  S
C423        H425   1.082       .  S
N426        N427   1.325       .  A
N426        C430   1.348       .  A
N427        C428   1.348       .  A
C428        C429   1.385       .  A
C428        H431   1.082       .  S
C429        C430   1.388       .  A
C429       C2456   1.483       .  S
C430        H432   1.081       .  S
N433        N434   1.324       .  A
N433        C437   1.346       .  A
N433       Cu441   2.078       .  S
N434        C435   1.347       .  A
N434       Cu440   2.089       .  S
C435        C436   1.387       .  A
C435        H438   1.082       .  S
C436        C437   1.384       .  A
C436       C2424   1.478       .  S
C437        H439   1.082       .  S
Cu440       N443   2.089       .  S
Cu441       N451   2.078       .  S
Cu442       N444   2.082       .  S
Cu442       N450   2.082       .  S
N443        N444   1.323       .  A
N443        C447   1.348       .  A
N444        C445   1.346       .  A
C445        C446   1.385       .  A
C445        H448   1.082       .  S
C446        C447   1.387       .  A
C446       C2440   1.480       .  S
C447        H449   1.082       .  S
N450        N451   1.322       .  A
N450        C454   1.344       .  A
N451        C452   1.349       .  A
C452        C453   1.386       .  A
C452        H455   1.081       .  S
C453        C454   1.387       .  A
C453       C2408   1.480       .  S
C454        H456   1.081       .  S
N457        N458   1.324       .  A
N457        C461   1.351       .  A
N457       Cu465   2.106       .  S
N458        C459   1.345       .  A
N458       Cu464   2.077       .  S
C459        C460   1.381       .  A
C459        H462   1.082       .  S
C460        C461   1.389       .  A
C460       C2395   1.479       .  S
C461        H463   1.082       .  S
Cu464       N467   2.078       .  S
Cu465       N475   2.106       .  S
Cu466       N468   2.080       .  S
Cu466       N474   2.081       .  S
N467        N468   1.321       .  A
N467        C471   1.347       .  A
N468        C469   1.346       .  A
C469        C470   1.385       .  A
C469        H472   1.082       .  S
C470        C471   1.386       .  A
C470       C2427   1.478       .  S
C471        H473   1.082       .  S
N474        N475   1.323       .  A
N474        C478   1.345       .  A
N475        C476   1.352       .  A
C476        C477   1.392       .  A
C476        H479   1.082       .  S
C477        C478   1.385       .  A
C477       C2376   1.487       .  S
C478        H480   1.082       .  S
N481        N482   1.324       .  A
N481        C485   1.351       .  A
N481       Cu489   2.101       .  S
N482        C483   1.344       .  A
N482       Cu488   2.078       .  S
C483        C484   1.383       .  A
C483        H486   1.082       .  S
C484        C485   1.389       .  A
C484       C2360   1.481       .  S
C485        H487   1.082       .  S
Cu488       N491   2.077       .  S
Cu489       N499   2.101       .  S
Cu490       N492   2.090       .  S
Cu490       N498   2.091       .  S
N491        N492   1.321       .  A
N491        C495   1.346       .  A
N492        C493   1.349       .  A
C493        C494   1.389       .  A
C493        H496   1.082       .  S
C494        C495   1.386       .  A
C494       C2392   1.483       .  S
C495        H497   1.081       .  S
N498        N499   1.324       .  A
N498        C502   1.344       .  A
N499        C500   1.353       .  A
C500        C501   1.391       .  A
C500        H503   1.082       .  S
C501        C502   1.386       .  A
C501       C2344   1.488       .  S
C502        H504   1.082       .  S
N505        N506   1.323       .  A
N505        C509   1.348       .  A
N505       Cu513   2.084       .  S
N506        C507   1.343       .  A
N506       Cu512   2.069       .  S
C507        C508   1.382       .  A
C507        H510   1.082       .  S
C508        C509   1.386       .  A
C508       C2328   1.473       .  S
C509        H511   1.082       .  S
Cu512       N515   2.068       .  S
Cu513       N523   2.084       .  S
Cu514       N516   2.081       .  S
Cu514       N522   2.082       .  S
N515        N516   1.321       .  A
N515        C519   1.345       .  A
N516        C517   1.346       .  A
C517        C518   1.385       .  A
C517        H520   1.082       .  S
C518        C519   1.383       .  A
C518       C2312   1.474       .  S
C519        H521   1.082       .  S
N522        N523   1.323       .  A
N522        C526   1.344       .  A
N523        C524   1.349       .  A
C524        C525   1.386       .  A
C524        H527   1.081       .  S
C525        C526   1.386       .  A
C525       C2296   1.481       .  S
C526        H528   1.081       .  S
N529        N530   1.323       .  A
N529        C533   1.346       .  A
N529       Cu537   2.079       .  S
N530        C531   1.346       .  A
N530       Cu536   2.080       .  S
C531        C532   1.385       .  A
C531        H534   1.082       .  S
C532        C533   1.384       .  A
C532       C2315   1.475       .  S
C533        H535   1.082       .  S
Cu536       N539   2.080       .  S
Cu537       N547   2.079       .  S
Cu538       N540   2.088       .  S
Cu538       N546   2.088       .  S
N539        N540   1.323       .  A
N539        C543   1.347       .  A
N540        C541   1.347       .  A
C541        C542   1.386       .  A
C541        H544   1.082       .  S
C542        C543   1.385       .  A
C542       C2363   1.478       .  S
C543        H545   1.082       .  S
N546        N547   1.322       .  A
N546        C550   1.345       .  A
N547        C548   1.348       .  A
C548        C549   1.386       .  A
C548        H551   1.081       .  S
C549        C550   1.388       .  A
C549       C2283   1.483       .  S
C550        H552   1.081       .  S
N553        N554   1.325       .  A
N553        C557   1.350       .  A
N553       Cu561   2.106       .  S
N554        C555   1.345       .  A
N554       Cu560   2.076       .  S
C555        C556   1.384       .  A
C555        H558   1.082       .  S
C556        C557   1.389       .  A
C556       C2443   1.483       .  S
C557        H559   1.082       .  S
Cu560       N563   2.074       .  S
Cu561       N571   2.106       .  S
Cu562       N564   2.068       .  S
Cu562       N570   2.069       .  S
N563        N564   1.321       .  A
N563        C567   1.346       .  A
N564        C565   1.344       .  A
C565        C566   1.383       .  A
C565        H568   1.082       .  S
C566        C567   1.385       .  A
C566       C2331   1.472       .  S
C567        H569   1.082       .  S
N570        N571   1.322       .  A
N570        C574   1.342       .  A
N571        C572   1.353       .  A
C572        C573   1.393       .  A
C572        H575   1.082       .  S
C573        C574   1.383       .  A
C573       C2264   1.485       .  S
C574        H576   1.082       .  S
N577        N578   1.325       .  A
N577        C581   1.350       .  A
N577       Cu585   2.096       .  S
N578        C579   1.345       .  A
N578       Cu584   2.084       .  S
C579        C580   1.383       .  A
C579        H582   1.082       .  S
C580        C581   1.387       .  A
C580       C2232   1.478       .  S
C581        H583   1.081       .  S
Cu584       N587   2.084       .  S
Cu585       N595   2.095       .  S
Cu586       N588   2.073       .  S
Cu586       N594   2.074       .  S
N587        N588   1.321       .  A
N587        C591   1.349       .  A
N588        C589   1.345       .  A
C589        C590   1.384       .  A
C589        H592   1.082       .  S
C590        C591   1.388       .  A
C590       C2251   1.479       .  S
C591        H593   1.081       .  S
N594        N595   1.323       .  A
N594        C598   1.343       .  A
N595        C596   1.351       .  A
C596        C597   1.390       .  A
C596        H599   1.082       .  S
C597        C598   1.383       .  A
C597       C2219   1.482       .  S
C598        H600   1.082       .  S
N601        N602   1.324       .  A
N601        C605   1.347       .  A
N601       Cu609   2.084       .  S
N602        C603   1.346       .  A
N602       Cu608   2.086       .  S
C603        C604   1.384       .  A
C603        H606   1.082       .  S
C604        C605   1.384       .  A
C604       C2248   1.476       .  S
C605        H607   1.082       .  S
Cu608       N611   2.085       .  S
Cu609       N619   2.084       .  S
Cu610       N612   2.076       .  S
Cu610       N618   2.077       .  S
N611        N612   1.322       .  A
N611        C615   1.348       .  A
N612        C613   1.345       .  A
C613        C614   1.384       .  A
C613        H616   1.082       .  S
C614        C615   1.387       .  A
C614       C2203   1.478       .  S
C615        H617   1.082       .  S
N618        N619   1.322       .  A
N618        C622   1.345       .  A
N619        C620   1.348       .  A
C620        C621   1.387       .  A
C620        H623   1.081       .  S
C621        C622   1.386       .  A
C621       C2184   1.481       .  S
C622        H624   1.081       .  S
N625        N626   1.323       .  A
N625        C629   1.351       .  A
N625       Cu633   2.096       .  S
N626        C627   1.342       .  A
N626       Cu632   2.071       .  S
C627        C628   1.381       .  A
C627        H630   1.082       .  S
C628        C629   1.389       .  A
C628       C2168   1.478       .  S
C629        H631   1.082       .  S
Cu632       N635   2.071       .  S
Cu633       N643   2.097       .  S
Cu634       N636   2.095       .  S
Cu634       N642   2.096       .  S
N635        N636   1.321       .  A
N635        C639   1.347       .  A
N636        C637   1.348       .  A
C637        C638   1.389       .  A
C637        H640   1.082       .  S
C638        C639   1.385       .  A
C638       C2235   1.481       .  S
C639        H641   1.082       .  S
N642        N643   1.324       .  A
N642        C646   1.347       .  A
N643        C644   1.351       .  A
C644        C645   1.388       .  A
C644        H647   1.082       .  S
C645        C646   1.388       .  A
C645       C2155   1.488       .  S
C646        H648   1.081       .  S
N649        N650   1.324       .  A
N649        C653   1.350       .  A
N649       Cu657   2.099       .  S
N650        C651   1.344       .  A
N650       Cu656   2.075       .  S
C651        C652   1.382       .  A
C651        H654   1.082       .  S
C652        C653   1.388       .  A
C652       C2200   1.479       .  S
C653        H655   1.082       .  S
Cu656       N659   2.073       .  S
Cu657       N667   2.099       .  S
Cu658       N660   2.075       .  S
Cu658       N666   2.076       .  S
N659        N660   1.321       .  A
N659        C663   1.346       .  A
N660        C661   1.345       .  A
C661        C662   1.385       .  A
C661        H664   1.082       .  S
C662        C663   1.386       .  A
C662       C2136   1.476       .  S
C663        H665   1.082       .  S
N666        N667   1.323       .  A
N666        C670   1.343       .  A
N667        C668   1.352       .  A
C668        C669   1.391       .  A
C668        H671   1.082       .  S
C669        C670   1.383       .  A
C669       C2120   1.484       .  S
C670        H672   1.082       .  S
N673        N674   1.323       .  A
N673        C677   1.348       .  A
N673       Cu681   2.091       .  S
N674        C675   1.344       .  A
N674       Cu680   2.071       .  S
C675        C676   1.383       .  A
C675        H678   1.081       .  S
C676        C677   1.387       .  A
C676       C2139   1.477       .  S
C677        H679   1.082       .  S
Cu680       N683   2.071       .  S
Cu681       N691   2.091       .  S
Cu682       N684   2.091       .  S
Cu682       N690   2.092       .  S
N683        N684   1.322       .  A
N683        C687   1.346       .  A
N684        C685   1.348       .  A
C685        C686   1.388       .  A
C685        H688   1.082       .  S
C686        C687   1.384       .  A
C686       C2104   1.478       .  S
C687        H689   1.082       .  S
N690        N691   1.323       .  A
N690        C694   1.346       .  A
N691        C692   1.350       .  A
C692        C693   1.388       .  A
C692        H695   1.082       .  S
C693        C694   1.388       .  A
C693       C2088   1.487       .  S
C694        H696   1.081       .  S
N697        N698   1.324       .  A
N697        C701   1.350       .  A
N697       Cu705   2.088       .  S
N698        C699   1.343       .  A
N698       Cu704   2.076       .  S
C699        C700   1.382       .  A
C699        H702   1.082       .  S
C700        C701   1.386       .  A
C700       C2107   1.475       .  S
C701        H703   1.082       .  S
Cu704       N707   2.075       .  S
Cu705       N715   2.087       .  S
Cu706       N708   2.080       .  S
Cu706       N714   2.081       .  S
N707        N708   1.321       .  A
N707        C711   1.346       .  A
N708        C709   1.347       .  A
C709        C710   1.386       .  A
C709        H712   1.082       .  S
C710        C711   1.385       .  A
C710       C2171   1.477       .  S
C711        H713   1.082       .  S
N714        N715   1.323       .  A
N714        C718   1.342       .  A
N715        C716   1.350       .  A
C716        C717   1.387       .  A
C716        H719   1.082       .  S
C717        C718   1.385       .  A
C717       C2075   1.480       .  S
C718        H720   1.081       .  S
N721        N722   1.321       .  A
N721        C725   1.350       .  A
N721       Cu729   2.086       .  S
N722        C723   1.345       .  A
N722       Cu728   2.076       .  S
C723        C724   1.384       .  A
C723        H726   1.082       .  S
C724        C725   1.388       .  A
C724       C2059   1.479       .  S
C725        H727   1.082       .  S
Cu728       N731   2.077       .  S
Cu729       N739   2.088       .  S
Cu730       N732   2.112       .  S
Cu730       N738   2.113       .  S
N731        N732   1.324       .  A
N731        C735   1.345       .  A
N732        C733   1.353       .  A
C733        C734   1.392       .  A
C733        H736   1.082       .  S
C734        C735   1.382       .  A
C734       C2040   1.484       .  S
C735        H737   1.082       .  S
N738        N739   1.325       .  A
N738        C742   1.354       .  A
N739        C740   1.345       .  A
C740        C741   1.386       .  A
C740        H743   1.081       .  S
C741        C742   1.392       .  A
C741       C2024   1.491       .  S
C742        H744   1.081       .  S
N745        N746   1.323       .  A
N745        C749   1.350       .  A
N745       Cu753   2.095       .  S
N746        C747   1.344       .  A
N746       Cu752   2.074       .  S
C747        C748   1.382       .  A
C747        H750   1.082       .  S
C748        C749   1.388       .  A
C748       C2056   1.478       .  S
C749        H751   1.082       .  S
Cu752       N755   2.073       .  S
Cu753       N763   2.095       .  S
Cu754       N756   2.093       .  S
Cu754       N762   2.094       .  S
N755        N756   1.322       .  A
N755        C759   1.347       .  A
N756        C757   1.348       .  A
C757        C758   1.389       .  A
C757        H760   1.082       .  S
C758        C759   1.384       .  A
C758       C2008   1.480       .  S
C759        H761   1.082       .  S
N762        N763   1.324       .  A
N762        C766   1.346       .  A
N763        C764   1.352       .  A
C764        C765   1.389       .  A
C764        H767   1.082       .  S
C765        C766   1.387       .  A
C765       C1992   1.487       .  S
C766        H768   1.082       .  S
N769        N770   1.322       .  A
N769        C773   1.351       .  A
N769       Cu777   2.094       .  S
N770        C771   1.344       .  A
N770       Cu776   2.075       .  S
C771        C772   1.382       .  A
C771        H774   1.082       .  S
C772        C773   1.389       .  A
C772       C1976   1.479       .  S
C773        H775   1.081       .  S
Cu776       N779   2.075       .  S
Cu777       N787   2.095       .  S
Cu778       N780   2.098       .  S
Cu778       N786   2.098       .  S
N779        N780   1.322       .  A
N779        C783   1.345       .  A
N780        C781   1.351       .  A
C781        C782   1.391       .  A
C781        H784   1.082       .  S
C782        C783   1.384       .  A
C782       C2043   1.483       .  S
C783        H785   1.082       .  S
N786        N787   1.325       .  A
N786        C790   1.347       .  A
N787        C788   1.350       .  A
C788        C789   1.387       .  A
C788        H791   1.082       .  S
C789        C790   1.388       .  A
C789       C1960   1.486       .  S
C790        H792   1.081       .  S
N793        N794   1.322       .  A
N793        C797   1.351       .  A
N793       Cu801   2.089       .  S
N794        C795   1.344       .  A
N794       Cu800   2.076       .  S
C795        C796   1.385       .  A
C795        H798   1.082       .  S
C796        C797   1.388       .  A
C796       C2011   1.481       .  S
C797        H799   1.082       .  S
Cu800       N803   2.076       .  S
Cu801       N811   2.089       .  S
Cu802       N804   2.103       .  S
Cu802       N810   2.104       .  S
N803        N804   1.323       .  A
N803        C807   1.346       .  A
N804        C805   1.350       .  A
C805        C806   1.389       .  A
C805        H808   1.082       .  S
C806        C807   1.383       .  A
C806       C1944   1.481       .  S
C807        H809   1.081       .  S
N810        N811   1.325       .  A
N810        C814   1.351       .  A
N811        C812   1.346       .  A
C812        C813   1.384       .  A
C812        H815   1.082       .  S
C813        C814   1.391       .  A
C813       C1928   1.486       .  S
C814        H816   1.081       .  S
N817        N818   1.324       .  A
N817        C821   1.351       .  A
N817       Cu825   2.102       .  S
N818        C819   1.344       .  A
N818       Cu824   2.076       .  S
C819        C820   1.382       .  A
C819        H822   1.082       .  S
C820        C821   1.389       .  A
C820       C1947   1.480       .  S
C821        H823   1.082       .  S
Cu824       N827   2.075       .  S
Cu825       N835   2.101       .  S
Cu826       N828   2.076       .  S
Cu826       N834   2.078       .  S
N827        N828   1.321       .  A
N827        C831   1.346       .  A
N828        C829   1.346       .  A
C829        C830   1.385       .  A
C829        H832   1.082       .  S
C830        C831   1.384       .  A
C830       C1915   1.474       .  S
C831        H833   1.082       .  S
N834        N835   1.323       .  A
N834        C838   1.343       .  A
N835        C836   1.352       .  A
C836        C837   1.391       .  A
C836        H839   1.082       .  S
C837        C838   1.384       .  A
C837       C1899   1.485       .  S
C838        H840   1.082       .  S
N841        N842   1.323       .  A
N841        C845   1.350       .  A
N841       Cu849   2.096       .  S
N842        C843   1.345       .  A
N842       Cu848   2.075       .  S
C843        C844   1.383       .  A
C843        H846   1.082       .  S
C844        C845   1.389       .  A
C844       C1979   1.480       .  S
C845        H847   1.082       .  S
Cu848       N851   2.075       .  S
Cu849       N859   2.097       .  S
Cu850       N852   2.076       .  S
Cu850       N858   2.076       .  S
N851        N852   1.321       .  A
N851        C855   1.345       .  A
N852        C853   1.346       .  A
C853        C854   1.386       .  A
C853        H856   1.081       .  S
C854        C855   1.385       .  A
C854       C1912   1.477       .  S
C855        H857   1.082       .  S
N858        N859   1.323       .  A
N858        C862   1.345       .  A
N859        C860   1.349       .  A
C860        C861   1.390       .  A
C860        H863   1.081       .  S
C861        C862   1.383       .  A
C861       C1883   1.482       .  S
C862        H864   1.082       .  S
N865        N866   1.322       .  A
N865        C869   1.353       .  A
N865       Cu873   2.099       .  S
N866        C867   1.342       .  A
N866       Cu872   2.072       .  S
C867        C868   1.382       .  A
C867        H870   1.082       .  S
C868        C869   1.391       .  A
C868       C1848   1.480       .  S
C869        H871   1.081       .  S
Cu872       N875   2.073       .  S
Cu873       N883   2.100       .  S
Cu874       N876   2.102       .  S
Cu874       N882   2.103       .  S
N875        N876   1.322       .  A
N875        C879   1.346       .  A
N876        C877   1.350       .  A
C877        C878   1.391       .  A
C877        H880   1.081       .  S
C878        C879   1.384       .  A
C878       C1864   1.484       .  S
C879        H881   1.082       .  S
N882        N883   1.325       .  A
N882        C886   1.351       .  A
N883        C884   1.348       .  A
C884        C885   1.387       .  A
C884        H887   1.082       .  S
C885        C886   1.390       .  A
C885       C1835   1.489       .  S
C886        H888   1.081       .  S
N889        N890   1.324       .  A
N889        C893   1.352       .  A
N889       Cu897   2.106       .  S
N890        C891   1.344       .  A
N890       Cu896   2.073       .  S
C891        C892   1.381       .  A
C891        H894   1.082       .  S
C892        C893   1.390       .  A
C892       C1867   1.479       .  S
C893        H895   1.082       .  S
Cu896       N899   2.072       .  S
Cu897       N907   2.106       .  S
Cu898       N900   2.088       .  S
Cu898       N906   2.089       .  S
N899        N900   1.321       .  A
N899        C903   1.345       .  A
N900        C901   1.349       .  A
C901        C902   1.389       .  A
C901        H904   1.082       .  S
C902        C903   1.385       .  A
C902       C1816   1.480       .  S
C903        H905   1.082       .  S
N906        N907   1.325       .  A
N906        C910   1.345       .  A
N907        C908   1.353       .  A
C908        C909   1.391       .  A
C908        H911   1.082       .  S
C909        C910   1.385       .  A
C909       C1800   1.488       .  S
C910        H912   1.082       .  S
N913        N914   1.322       .  A
N913        C917   1.347       .  A
N913       Cu921   2.090       .  S
N914        C915   1.345       .  A
N914       Cu920   2.067       .  S
C915        C916   1.382       .  A
C915        H918   1.082       .  S
C916        C917   1.387       .  A
C916       C1787   1.473       .  S
C917        H919   1.082       .  S
Cu920       N923   2.068       .  S
Cu921       N931   2.090       .  S
Cu922       N924   2.104       .  S
Cu922       N930   2.104       .  S
N923        N924   1.322       .  A
N923        C927   1.344       .  A
N924        C925   1.351       .  A
C925        C926   1.392       .  A
C925        H928   1.082       .  S
C926        C927   1.382       .  A
C926       C1851   1.483       .  S
C927        H929   1.082       .  S
N930        N931   1.324       .  A
N930        C934   1.349       .  A
N931        C932   1.350       .  A
C932        C933   1.387       .  A
C932        H935   1.081       .  S
C933        C934   1.390       .  A
C933       C1768   1.489       .  S
C934        H936   1.081       .  S
N937        N938   1.323       .  A
N937        C941   1.350       .  A
N937       Cu945   2.093       .  S
N938        C939   1.344       .  A
N938       Cu944   2.072       .  S
C939        C940   1.382       .  A
C939        H942   1.082       .  S
C940        C941   1.388       .  A
C940       C1819   1.478       .  S
C941        H943   1.082       .  S
Cu944       N947   2.072       .  S
Cu945       N955   2.094       .  S
Cu946       N948   2.084       .  S
Cu946       N954   2.085       .  S
N947        N948   1.321       .  A
N947        C951   1.343       .  A
N948        C949   1.350       .  A
C949        C950   1.389       .  A
C949        H952   1.082       .  S
C950        C951   1.384       .  A
C950       C1752   1.480       .  S
C951        H953   1.082       .  S
N954        N955   1.324       .  A
N954        C958   1.344       .  A
N955        C956   1.350       .  A
C956        C957   1.387       .  A
C956        H959   1.081       .  S
C957        C958   1.385       .  A
C957       C1736   1.482       .  S
C958        H960   1.081       .  S
N961        N962   1.324       .  A
N961        C965   1.354       .  A
N961       Cu969   2.117       .  S
N962        C963   1.342       .  A
N962       Cu968   2.064       .  S
C963        C964   1.377       .  A
C963        H966   1.082       .  S
C964        C965   1.392       .  A
C964       C1755   1.478       .  S
C965        H967   1.082       .  S
Cu968       N971   2.063       .  S
Cu969       N979   2.117       .  S
Cu970       N972   2.076       .  S
Cu970       N978   2.078       .  S
N971        N972   1.319       .  A
N971        C975   1.344       .  A
N972        C973   1.346       .  A
C973        C974   1.387       .  A
C973        H976   1.082       .  S
C974        C975   1.384       .  A
C974       C1720   1.476       .  S
C975        H977   1.081       .  S
N978        N979   1.325       .  A
N978        C982   1.343       .  A
N979        C980   1.355       .  A
C980        C981   1.394       .  A
C980        H983   1.081       .  S
C981        C982   1.382       .  A
C981       C1704   1.488       .  S
C982        H984   1.082       .  S
N985        N986   1.323       .  A
N985        C989   1.350       .  A
N985       Cu993   2.095       .  S
N986        C987   1.343       .  A
N986       Cu992   2.066       .  S
C987        C988   1.379       .  A
C987        H990   1.082       .  S
C988        C989   1.387       .  A
C988       C1723   1.472       .  S
C989        H991   1.082       .  S
Cu992       N995   2.066       .  S
Cu993      N1003   2.096       .  S
Cu994       N996   2.079       .  S
Cu994      N1002   2.080       .  S
N995        N996   1.320       .  A
N995        C999   1.343       .  A
N996        C997   1.349       .  A
C997        C998   1.387       .  A
C997       H1000   1.082       .  S
C998        C999   1.385       .  A
C998       C1784   1.477       .  S
C999       H1001   1.082       .  S
N1002      N1003   1.324       .  A
N1002      C1006   1.344       .  A
N1003      C1004   1.351       .  A
C1004      C1005   1.389       .  A
C1004      H1007   1.081       .  S
C1005      C1006   1.385       .  A
C1005      C1691   1.484       .  S
C1006      H1008   1.081       .  S
N1009      N1010   1.323       .  A
N1009      C1013   1.346       .  A
N1009     Cu1017   2.073       .  S
N1010      C1011   1.344       .  A
N1010     Cu1016   2.077       .  S
C1011      C1012   1.383       .  A
C1011      H1014   1.082       .  S
C1012      C1013   1.382       .  A
C1012      C1659   1.470       .  S
C1013      H1015   1.082       .  S
Cu1016     N1019   2.077       .  S
Cu1017     N1027   2.073       .  S
Cu1018     N1020   2.083       .  S
Cu1018     N1026   2.084       .  S
N1019      N1020   1.322       .  A
N1019      C1023   1.347       .  A
N1020      C1021   1.346       .  A
C1021      C1022   1.385       .  A
C1021      H1024   1.082       .  S
C1022      C1023   1.385       .  A
C1022      C1675   1.476       .  S
C1023      H1025   1.082       .  S
N1026      N1027   1.322       .  A
N1026      C1030   1.345       .  A
N1027      C1028   1.347       .  A
C1028      C1029   1.384       .  A
C1028      H1031   1.081       .  S
C1029      C1030   1.388       .  A
C1029      C1640   1.479       .  S
C1030      H1032   1.081       .  S
N1033      N1034   1.324       .  A
N1033      C1037   1.353       .  A
N1033     Cu1041   2.109       .  S
N1034      C1035   1.343       .  A
N1034     Cu1040   2.074       .  S
C1035      C1036   1.380       .  A
C1035      H1038   1.082       .  S
C1036      C1037   1.390       .  A
C1036      C1624   1.480       .  S
C1037      H1039   1.082       .  S
Cu1040     N1043   2.072       .  S
Cu1041     N1051   2.108       .  S
Cu1042     N1044   2.071       .  S
Cu1042     N1050   2.072       .  S
N1043      N1044   1.320       .  A
N1043      C1047   1.345       .  A
N1044      C1045   1.345       .  A
C1045      C1046   1.385       .  A
C1045      H1048   1.082       .  S
C1046      C1047   1.386       .  A
C1046      C1656   1.475       .  S
C1047      H1049   1.081       .  S
N1050      N1051   1.323       .  A
N1050      C1054   1.342       .  A
N1051      C1052   1.353       .  A
C1052      C1053   1.392       .  A
C1052      H1055   1.082       .  S
C1053      C1054   1.383       .  A
C1053      C1611   1.486       .  S
C1054      H1056   1.081       .  S
N1057      N1058   1.322       .  A
N1057      C1061   1.349       .  A
N1057     Cu1065   2.084       .  S
N1058      C1059   1.343       .  A
N1058     Cu1064   2.071       .  S
C1059      C1060   1.381       .  A
C1059      H1062   1.082       .  S
C1060      C1061   1.387       .  A
C1060      C1592   1.472       .  S
C1061      H1063   1.081       .  S
Cu1064     N1067   2.072       .  S
Cu1065     N1075   2.085       .  S
Cu1066     N1068   2.100       .  S
Cu1066     N1074   2.101       .  S
N1067      N1068   1.322       .  A
N1067      C1071   1.344       .  A
N1068      C1069   1.351       .  A
C1069      C1070   1.392       .  A
C1069      H1072   1.082       .  S
C1070      C1071   1.383       .  A
C1070      C1627   1.484       .  S
C1071      H1073   1.082       .  S
N1074      N1075   1.325       .  A
N1074      C1078   1.347       .  A
N1075      C1076   1.349       .  A
C1076      C1077   1.385       .  A
C1076      H1079   1.081       .  S
C1077      C1078   1.388       .  A
C1077      C1576   1.483       .  S
C1078      H1080   1.081       .  S
N1081      N1082   1.322       .  A
N1081      C1085   1.348       .  A
N1081     Cu1089   2.080       .  S
N1082      C1083   1.341       .  A
N1082     Cu1088   2.060       .  S
C1083      C1084   1.380       .  A
C1083      H1086   1.082       .  S
C1084      C1085   1.386       .  A
C1084      C1563   1.471       .  S
C1085      H1087   1.082       .  S
Cu1088     N1091   2.060       .  S
Cu1089     N1099   2.082       .  S
Cu1090     N1092   2.092       .  S
Cu1090     N1098   2.094       .  S
N1091      N1092   1.321       .  A
N1091      C1095   1.344       .  A
N1092      C1093   1.349       .  A
C1093      C1094   1.389       .  A
C1093      H1096   1.081       .  S
C1094      C1095   1.382       .  A
C1094      C1595   1.477       .  S
C1095      H1097   1.082       .  S
N1098      N1099   1.324       .  A
N1098      C1102   1.346       .  A
N1099      C1100   1.348       .  A
C1100      C1101   1.385       .  A
C1100      H1103   1.082       .  S
C1101      C1102   1.387       .  A
C1101      C1544   1.481       .  S
C1102      H1104   1.082       .  S
N1105      N1106   1.324       .  A
N1105      C1109   1.347       .  A
N1105     Cu1113   2.084       .  S
N1106      C1107   1.346       .  A
N1106     Cu1112   2.080       .  S
C1107      C1108   1.384       .  A
C1107      H1110   1.081       .  S
C1108      C1109   1.385       .  A
C1108      C1672   1.476       .  S
C1109      H1111   1.081       .  S
Cu1112     N1115   2.080       .  S
Cu1113     N1123   2.084       .  S
Cu1114     N1116   2.084       .  S
Cu1114     N1122   2.084       .  S
N1115      N1116   1.322       .  A
N1115      C1119   1.346       .  A
N1116      C1117   1.348       .  A
C1117      C1118   1.387       .  A
C1117      H1120   1.081       .  S
C1118      C1119   1.385       .  A
C1118      C1531   1.480       .  S
C1119      H1121   1.082       .  S
N1122      N1123   1.323       .  A
N1122      C1126   1.344       .  A
N1123      C1124   1.350       .  A
C1124      C1125   1.388       .  A
C1124      H1127   1.082       .  S
C1125      C1126   1.385       .  A
C1125      C1512   1.481       .  S
C1126      H1128   1.082       .  S
N1129      N1130   1.324       .  A
N1129      C1133   1.351       .  A
N1129     Cu1137   2.104       .  S
N1130      C1131   1.344       .  A
N1130     Cu1136   2.071       .  S
C1131      C1132   1.382       .  A
C1131      H1134   1.082       .  S
C1132      C1133   1.390       .  A
C1132      C1528   1.481       .  S
C1133      H1135   1.082       .  S
Cu1136     N1139   2.069       .  S
Cu1137     N1147   2.104       .  S
Cu1138     N1140   2.068       .  S
Cu1138     N1146   2.070       .  S
N1139      N1140   1.321       .  A
N1139      C1143   1.344       .  A
N1140      C1141   1.344       .  A
C1141      C1142   1.383       .  A
C1141      H1144   1.082       .  S
C1142      C1143   1.384       .  A
C1142      C1560   1.471       .  S
C1143      H1145   1.082       .  S
N1146      N1147   1.323       .  A
N1146      C1150   1.343       .  A
N1147      C1148   1.352       .  A
C1148      C1149   1.392       .  A
C1148      H1151   1.082       .  S
C1149      C1150   1.383       .  A
C1149      C1496   1.484       .  S
C1150      H1152   1.082       .  S
C1153      N1154   1.365       .  A
C1153      N1158   1.370       .  A
C1153      C1480   1.485       .  S
N1154      C1155   1.359       .  A
C1155      N1156   1.355       .  A
C1155      C1579   1.479       .  S
N1156      C1157   1.356       .  A
C1157      N1158   1.364       .  A
C1157      C1771   1.487       .  S
C1159      N1160   1.371       .  A
C1159      N1164   1.368       .  A
C1159      C1464   1.487       .  S
N1160      C1161   1.364       .  A
C1161      N1162   1.351       .  A
C1161      C1963   1.483       .  S
N1162      C1163   1.351       .  A
C1163      N1164   1.360       .  A
C1163      C1643   1.479       .  S
C1165      N1166   1.365       .  A
C1165      N1170   1.370       .  A
C1165      C1451   1.488       .  S
N1166      C1167   1.359       .  A
C1167      N1168   1.354       .  A
C1167      C1499   1.484       .  S
N1168      C1169   1.358       .  A
C1169      N1170   1.366       .  A
C1169      C2152   1.486       .  S
C1171      N1172   1.365       .  A
C1171      N1176   1.366       .  A
C1171      C1432   1.487       .  S
N1172      C1173   1.362       .  A
C1173      N1174   1.358       .  A
C1173      C2760   1.484       .  S
N1174      C1175   1.359       .  A
C1175      N1176   1.362       .  A
C1175      C1707   1.487       .  S
C1177      N1178   1.365       .  A
C1177      N1182   1.367       .  A
C1177      C1416   1.489       .  S
N1178      C1179   1.361       .  A
C1179      N1180   1.357       .  A
C1179      C2379   1.485       .  S
N1180      C1181   1.358       .  A
C1181      N1182   1.364       .  A
C1181      C1896   1.486       .  S
C1183      N1184   1.369       .  A
C1183      N1188   1.371       .  A
C1183      C1400   1.491       .  S
N1184      C1185   1.362       .  A
C1185      N1186   1.351       .  A
C1185      C2571   1.483       .  S
N1186      C1187   1.352       .  A
C1187      N1188   1.364       .  A
C1187      C2091   1.485       .  S
C1189      N1190   1.366       .  A
C1189      N1194   1.372       .  A
C1189      C1387   1.488       .  S
N1190      C1191   1.358       .  A
C1191      N1192   1.352       .  A
C1191      C2603   1.480       .  S
N1192      C1193   1.353       .  A
C1193      N1194   1.366       .  A
C1193      C2907   1.486       .  S
C1195      N1196   1.365       .  A
C1195      N1200   1.366       .  A
C1195      C1371   1.481       .  S
N1196      C1197   1.359       .  A
C1197      N1198   1.354       .  A
C1197      C2072   1.478       .  S
N1198      C1199   1.354       .  A
C1199      N1200   1.362       .  A
C1199      C2731   1.480       .  S
C1201      N1202   1.368       .  A
C1201      N1206   1.368       .  A
C1201      C1352   1.492   1_655  S
N1202      C1203   1.362       .  A
C1203      N1204   1.356       .  A
C1203      C2347   1.488       .  S
N1204      C1205   1.357       .  A
C1205      N1206   1.364       .  A
C1205      C1688   1.484   1_565  S
C1207      N1208   1.363       .  A
C1207      N1212   1.365   1_565  A
C1207      C1336   1.484   1_655  S
N1208      C1209   1.361       .  A
C1209      N1210   1.357       .  A
C1209      C2859   1.481       .  S
N1210      C1211   1.357   1_565  A
C1211      N1212   1.362       .  A
C1211      C2795   1.484       .  S
C1213      N1214   1.366   1_554  A
C1213      N1218   1.371       .  A
C1213      C1320   1.485       .  S
N1214      C1215   1.357       .  A
C1215      N1216   1.351       .  A
C1215      C2539   1.477       .  S
N1216      C1217   1.351   1_556  A
C1217      N1218   1.365       .  A
C1217      C1880   1.481       .  S
C1219      N1220   1.372   1_554  A
C1219      N1224   1.368       .  A
C1219      C1304   1.490       .  S
N1220      C1221   1.366       .  A
C1221      N1222   1.353   1_556  A
C1221      C2984   1.485       .  S
N1222      C1223   1.351       .  A
C1223      N1224   1.360       .  A
C1223      C2411   1.480       .  S
C1225      N1226   1.364       .  A
C1225      N1230   1.364       .  A
C1225      C1368   1.481       .  S
N1226      C1227   1.361       .  A
C1227      N1228   1.357       .  A
C1227      C1739   1.479       .  S
N1228      C1229   1.356       .  A
C1229      N1230   1.359       .  A
C1229      C1515   1.480       .  S
C1231      N1232   1.366       .  A
C1231      N1236   1.371       .  A
C1231      C1384   1.488       .  S
N1232      C1233   1.359       .  A
C1233      N1234   1.353       .  A
C1233      C2299   1.479       .  S
N1234      C1235   1.355       .  A
C1235      N1236   1.365       .  A
C1235      C2027   1.488       .  S
C1237      N1238   1.370   1_565  A
C1237      N1242   1.374       .  A
C1237      C1355   1.494       .  S
N1238      C1239   1.362       .  A
C1239      N1240   1.350   1_545  A
C1239      C1547   1.484       .  S
N1240      C1241   1.351       .  A
C1241      N1242   1.367       .  A
C1241      C1931   1.486       .  S
C1243      N1244   1.364       .  A
C1243      N1248   1.363   1_565  A
C1243      C1339   1.483       .  S
N1244      C1245   1.361       .  A
C1245      N1246   1.358       .  A
C1245      C2491   1.480       .  S
N1246      C1247   1.357   1_565  A
C1247      N1248   1.360       .  A
C1247      C2216   1.481       .  S
C1249      N1250   1.364       .  A
C1249      N1254   1.364   1_556  A
C1249      C1323   1.483       .  S
N1250      C1251   1.361       .  A
C1251      N1252   1.358       .  A
C1251      C2123   1.484       .  S
N1252      C1253   1.359   1_556  A
C1253      N1254   1.361       .  A
C1253      C1608   1.481       .  S
C1255      N1256   1.373   1_556  A
C1255      N1260   1.366       .  A
C1255      C1307   1.493       .  S
N1256      C1257   1.369       .  A
C1257      N1258   1.355   1_554  A
C1257      C1832   1.489       .  S
N1258      C1259   1.353       .  A
C1259      N1260   1.359       .  A
C1259      C2683   1.483       .  S
C1261      N1262   1.370       .  A
C1261      N1266   1.371       .  A
C1261      C1419   1.489       .  S
N1262      C1263   1.363       .  A
C1263      N1264   1.352       .  A
C1263      C2475   1.482       .  S
N1264      C1265   1.351       .  A
C1265      N1266   1.363       .  A
C1265      C2955   1.483       .  S
C1267      N1268   1.362       .  A
C1267      N1272   1.364       .  A
C1267      C1483   1.483       .  S
N1268      C1269   1.358       .  A
C1269      N1270   1.358       .  A
C1269      C2651   1.481       .  S
N1270      C1271   1.360       .  A
C1271      N1272   1.363       .  A
C1271      C2187   1.482       .  S
C1273      N1274   1.366       .  A
C1273      N1278   1.370       .  A
C1273      C1403   1.491       .  S
N1274      C1275   1.360       .  A
C1275      N1276   1.355       .  A
C1275      C2667   1.486       .  S
N1276      C1277   1.358       .  A
C1277      N1278   1.367       .  A
C1277      C2891   1.488       .  S
C1279      N1280   1.367       .  A
C1279      N1284   1.364       .  A
C1279      C1467   1.487       .  S
N1280      C1281   1.365       .  A
C1281      N1282   1.360       .  A
C1281      C1803   1.487       .  S
N1282      C1283   1.358       .  A
C1283      N1284   1.360       .  A
C1283      C2267   1.485       .  S
C1285      N1286   1.367       .  A
C1285      N1290   1.366       .  A
C1285      C1435   1.487       .  S
N1286      C1287   1.363       .  A
C1287      N1288   1.356       .  A
C1287      C2843   1.484       .  S
N1288      C1289   1.356       .  A
C1289      N1290   1.361       .  A
C1289      C2280   1.482       .  S
C1291      N1292   1.367       .  A
C1291      N1296   1.370       .  A
C1291      C1448   1.489       .  S
N1292      C1293   1.362       .  A
C1293      N1294   1.354       .  A
C1293      C2459   1.483       .  S
N1294      C1295   1.355       .  A
C1295      N1296   1.364       .  A
C1295      C1995   1.488       .  S
C1297      C1302   1.386   1_554  A
C1297      C1298   1.409       .  A
C1297      S1303   1.711       .  A
C1298      C1299   1.408   1_565  A
C1298      H1309   1.082       .  S
C1299      C1308   1.383       .  A
C1299      C1300   1.386   1_554  A
C1300      C1301   1.408   1_545  A
C1300      S1306   1.710       .  A
C1301      C1302   1.407       .  A
C1301      H1310   1.083       .  S
C1302      C1305   1.382       .  A
S1303      C1304   1.729       .  A
C1304      C1305   1.392   1_554  A
C1305      H1311   1.083       .  S
S1306      C1307   1.730       .  A
C1307      C1308   1.393   1_556  A
C1308      H1312   1.083       .  S
C1313      C1318   1.386   1_554  A
C1313      C1314   1.406       .  A
C1313      S1319   1.715       .  A
C1314      C1315   1.407   1_565  A
C1314      H1325   1.083   1_565  S
C1315      C1324   1.375       .  A
C1315      C1316   1.386   1_554  A
C1316      C1317   1.403   1_545  A
C1316      S1322   1.711       .  A
C1317      C1318   1.405       .  A
C1317      H1326   1.083       .  S
C1318      C1321   1.373       .  A
S1319      C1320   1.726       .  A
C1320      C1321   1.391   1_554  A
C1321      H1327   1.083       .  S
S1322      C1323   1.726       .  A
C1323      C1324   1.391   1_556  A
C1324      H1328   1.083       .  S
C1329      C1334   1.386   1_565  A
C1329      C1330   1.406       .  A
C1329      S1335   1.711       .  A
C1330      C1331   1.406       .  A
C1330      H1341   1.083       .  S
C1331      C1340   1.376       .  A
C1331      C1332   1.386   1_565  A
C1332      C1333   1.404       .  A
C1332      S1338   1.710       .  A
C1333      C1334   1.405       .  A
C1333      H1342   1.083       .  S
C1334      C1337   1.375       .  A
S1335      C1336   1.727       .  A
C1336      C1337   1.390   1_565  A
C1337      H1343   1.083       .  S
S1338      C1339   1.726   1_545  A
C1339      C1340   1.391       .  A
C1340      H1344   1.083       .  S
C1345      C1350   1.386       .  A
C1345      C1346   1.408       .  A
C1345      S1351   1.713       .  A
C1346      C1347   1.408       .  A
C1346      H1357   1.083       .  S
C1347      C1356   1.382       .  A
C1347      C1348   1.386       .  A
C1348      C1349   1.410   1_565  A
C1348      S1354   1.713   1_565  A
C1349      C1350   1.409   1_545  A
C1349      H1358   1.083       .  S
C1350      C1353   1.382       .  A
S1351      C1352   1.728       .  A
C1352      C1353   1.394       .  A
C1353      H1359   1.083   1_565  S
S1354      C1355   1.730   1_545  A
C1355      C1356   1.393       .  A
C1356      H1360   1.083       .  S
C1361      C1366   1.386       .  A
C1361      C1362   1.402   1_554  A
C1361      S1367   1.708       .  A
C1362      C1363   1.403       .  A
C1362      H1373   1.083       .  S
C1363      C1372   1.372       .  A
C1363      C1364   1.386       .  A
C1364      C1365   1.406   1_556  A
C1364      S1370   1.713       .  A
C1365      C1366   1.406       .  A
C1365      H1374   1.083       .  S
C1366      C1369   1.376       .  A
S1367      C1368   1.725       .  A
C1368      C1369   1.391       .  A
C1369      H1375   1.083       .  S
S1370      C1371   1.726       .  A
C1371      C1372   1.389       .  A
C1372      H1376   1.083       .  S
C1377      C1382   1.386       .  A
C1377      C1378   1.405   1_554  A
C1377      S1383   1.714       .  A
C1378      C1379   1.407       .  A
C1378      H1389   1.083       .  S
C1379      C1388   1.375       .  A
C1379      C1380   1.385       .  A
C1380      C1381   1.407   1_556  A
C1380      S1386   1.716       .  A
C1381      C1382   1.408       .  A
C1381      H1390   1.083       .  S
C1382      C1385   1.377       .  A
S1383      C1384   1.726       .  A
C1384      C1385   1.393       .  A
C1385      H1391   1.083       .  S
S1386      C1387   1.727       .  A
C1387      C1388   1.392       .  A
C1388      H1392   1.083       .  S
C1393      C1398   1.386       .  A
C1393      C1394   1.410       .  A
C1393      S1399   1.715       .  A
C1394      C1395   1.410       .  A
C1394      H1405   1.083       .  S
C1395      C1404   1.383       .  A
C1395      C1396   1.386       .  A
C1396      C1397   1.406       .  A
C1396      S1402   1.709       .  A
C1397      C1398   1.405       .  A
C1397      H1406   1.083       .  S
C1398      C1401   1.379       .  A
S1399      C1400   1.730       .  A
C1400      C1401   1.391       .  A
C1401      H1407   1.083       .  S
S1402      C1403   1.728       .  A
C1403      C1404   1.394       .  A
C1404      H1408   1.083       .  S
C1409      C1414   1.386       .  A
C1409      C1410   1.408       .  A
C1409      S1415   1.715       .  A
C1410      C1411   1.408       .  A
C1410      H1421   1.083       .  S
C1411      C1420   1.379       .  A
C1411      C1412   1.386       .  A
C1412      C1413   1.406       .  A
C1412      S1418   1.713       .  A
C1413      C1414   1.407       .  A
C1413      H1422   1.083       .  S
C1414      C1417   1.377       .  A
S1415      C1416   1.728       .  A
C1416      C1417   1.392       .  A
C1417      H1423   1.083       .  S
S1418      C1419   1.727       .  A
C1419      C1420   1.393       .  A
C1420      H1424   1.083       .  S
C1425      C1430   1.386       .  A
C1425      C1426   1.407       .  A
C1425      S1431   1.713       .  A
C1426      C1427   1.408       .  A
C1426      H1437   1.083       .  S
C1427      C1436   1.379       .  A
C1427      C1428   1.386       .  A
C1428      C1429   1.405       .  A
C1428      S1434   1.710       .  A
C1429      C1430   1.405       .  A
C1429      H1438   1.083       .  S
C1430      C1433   1.377       .  A
S1431      C1432   1.728       .  A
C1432      C1433   1.391       .  A
C1433      H1439   1.083       .  S
S1434      C1435   1.727       .  A
C1435      C1436   1.392       .  A
C1436      H1440   1.083       .  S
C1441      C1446   1.386       .  A
C1441      C1442   1.409       .  A
C1441      S1447   1.713       .  A
C1442      C1443   1.408       .  A
C1442      H1453   1.083       .  S
C1443      C1452   1.381       .  A
C1443      C1444   1.386       .  A
C1444      C1445   1.406       .  A
C1444      S1450   1.709       .  A
C1445      C1446   1.405       .  A
C1445      H1454   1.083       .  S
C1446      C1449   1.378       .  A
S1447      C1448   1.729       .  A
C1448      C1449   1.391       .  A
C1449      H1455   1.083       .  S
S1450      C1451   1.727       .  A
C1451      C1452   1.392       .  A
C1452      H1456   1.083       .  S
C1457      C1462   1.386       .  A
C1457      C1458   1.407       .  A
C1457      S1463   1.711       .  A
C1458      C1459   1.407       .  A
C1458      H1469   1.083       .  S
C1459      C1468   1.379       .  A
C1459      C1460   1.386       .  A
C1460      C1461   1.406       .  A
C1460      S1466   1.710       .  A
C1461      C1462   1.406       .  A
C1461      H1470   1.083       .  S
C1462      C1465   1.378       .  A
S1463      C1464   1.728       .  A
C1464      C1465   1.391       .  A
C1465      H1471   1.083       .  S
S1466      C1467   1.727       .  A
C1467      C1468   1.392       .  A
C1468      H1472   1.083       .  S
C1473      C1478   1.386       .  A
C1473      C1474   1.403       .  A
C1473      S1479   1.712       .  A
C1474      C1475   1.405       .  A
C1474      H1485   1.083       .  S
C1475      C1484   1.372       .  A
C1475      C1476   1.386       .  A
C1476      C1477   1.406       .  A
C1476      S1482   1.714       .  A
C1477      C1478   1.407       .  A
C1477      H1486   1.083       .  S
C1478      C1481   1.375       .  A
S1479      C1480   1.725       .  A
C1480      C1481   1.392       .  A
C1481      H1487   1.083       .  S
S1482      C1483   1.727       .  A
C1483      C1484   1.390       .  A
C1484      H1488   1.083       .  S
C1489      C1494   1.386       .  A
C1489      C1490   1.402       .  A
C1489      S1495   1.706       .  A
C1490      C1491   1.403       .  A
C1490      H1501   1.083       .  S
C1491      C1500   1.371       .  A
C1491      C1492   1.386       .  A
C1492      C1493   1.408       .  A
C1492      S1498   1.716       .  A
C1493      C1494   1.408       .  A
C1493      H1502   1.083       .  S
C1494      C1497   1.379       .  A
S1495      C1496   1.725       .  A
C1496      C1497   1.391       .  A
C1497      H1503   1.083       .  S
S1498      C1499   1.727       .  A
C1499      C1500   1.389       .  A
C1500      H1504   1.083       .  S
C1505      C1510   1.386       .  A
C1505      C1506   1.399       .  A
C1505      S1511   1.703       .  A
C1506      C1507   1.400       .  A
C1506      H1517   1.084       .  S
C1507      C1516   1.368       .  A
C1507      C1508   1.386       .  A
C1508      C1509   1.408       .  A
C1508      S1514   1.715       .  A
C1509      C1510   1.408       .  A
C1509      H1518   1.083       .  S
C1510      C1513   1.378       .  A
S1511      C1512   1.723       .  A
C1512      C1513   1.392       .  A
C1513      H1519   1.083       .  S
S1514      C1515   1.727       .  A
C1515      C1516   1.387       .  A
C1516      H1520   1.084       .  S
C1521      C1526   1.387       .  A
C1521      C1522   1.404       .  A
C1521      S1527   1.708       .  A
C1522      C1523   1.404       .  A
C1522      H1533   1.083       .  S
C1523      C1532   1.375       .  A
C1523      C1524   1.386       .  A
C1524      C1525   1.404       .  A
C1524      S1530   1.709       .  A
C1525      C1526   1.404       .  A
C1525      H1534   1.084       .  S
C1526      C1529   1.375       .  A
S1527      C1528   1.726       .  A
C1528      C1529   1.388       .  A
C1529      H1535   1.083       .  S
S1530      C1531   1.725       .  A
C1531      C1532   1.389       .  A
C1532      H1536   1.083       .  S
C1537      C1542   1.386       .  A
C1537      C1538   1.398       .  A
C1537      S1543   1.706       .  A
C1538      C1539   1.401       .  A
C1538      H1549   1.084       .  S
C1539      C1548   1.365       .  A
C1539      C1540   1.385       .  A
C1540      C1541   1.408       .  A
C1540      S1546   1.721       .  A
C1541      C1542   1.410       .  A
C1541      H1550   1.083       .  S
C1542      C1545   1.377       .  A
S1543      C1544   1.722       .  A
C1544      C1545   1.393       .  A
C1545      H1551   1.083       .  S
S1546      C1547   1.727       .  A
C1547      C1548   1.390       .  A
C1548      H1552   1.084       .  S
C1553      C1558   1.387       .  A
C1553      C1554   1.399       .  A
C1553      S1559   1.705       .  A
C1554      C1555   1.400       .  A
C1554      H1565   1.084       .  S
C1555      C1564   1.366       .  A
C1555      C1556   1.387       .  A
C1556      C1557   1.402       .  A
C1556      S1562   1.710       .  A
C1557      C1558   1.403       .  A
C1557      H1566   1.084       .  S
C1558      C1561   1.369       .  A
S1559      C1560   1.722       .  A
C1560      C1561   1.386       .  A
C1561      H1567   1.083       .  S
S1562      C1563   1.722       .  A
C1563      C1564   1.385       .  A
C1564      H1568   1.083       .  S
C1569      C1574   1.386       .  A
C1569      C1570   1.411       .  A
C1569      S1575   1.716       .  A
C1570      C1571   1.410       .  A
C1570      H1581   1.082       .  S
C1571      C1580   1.381       .  A
C1571      C1572   1.387       .  A
C1572      C1573   1.398       .  A
C1572      S1578   1.700       .  A
C1573      C1574   1.398       .  A
C1573      H1582   1.083       .  S
C1574      C1577   1.369       .  A
S1575      C1576   1.730       .  A
C1576      C1577   1.385       .  A
C1577      H1583   1.082       .  S
S1578      C1579   1.722       .  A
C1579      C1580   1.393       .  A
C1580      H1584   1.083       .  S
C1585      C1590   1.387       .  A
C1585      C1586   1.402       .  A
C1585      S1591   1.706       .  A
C1586      C1587   1.402       .  A
C1586      H1597   1.084       .  S
C1587      C1596   1.372       .  A
C1587      C1588   1.387       .  A
C1588      C1589   1.403       .  A
C1588      S1594   1.708       .  A
C1589      C1590   1.404       .  A
C1589      H1598   1.084       .  S
C1590      C1593   1.373       .  A
S1591      C1592   1.722       .  A
C1592      C1593   1.386       .  A
C1593      H1599   1.084       .  S
S1594      C1595   1.725       .  A
C1595      C1596   1.386       .  A
C1596      H1600   1.083       .  S
C1601      C1606   1.387       .  A
C1601      C1602   1.399       .  A
C1601      S1607   1.704       .  A
C1602      C1603   1.400       .  A
C1602      H1613   1.083       .  S
C1603      C1612   1.368       .  A
C1603      C1604   1.385       .  A
C1604      C1605   1.409       .  A
C1604      S1610   1.718       .  A
C1605      C1606   1.410       .  A
C1605      H1614   1.083       .  S
C1606      C1609   1.379       .  A
S1607      C1608   1.723       .  A
C1608      C1609   1.393       .  A
C1609      H1615   1.083       .  S
S1610      C1611   1.729       .  A
C1611      C1612   1.388       .  A
C1612      H1616   1.082       .  S
C1617      C1622   1.387       .  A
C1617      C1618   1.404       .  A
C1617      S1623   1.707       .  A
C1618      C1619   1.404       .  A
C1618      H1629   1.084       .  S
C1619      C1628   1.377       .  A
C1619      C1620   1.386       .  A
C1620      C1621   1.407       .  A
C1620      S1626   1.709       .  A
C1621      C1622   1.406       .  A
C1621      H1630   1.083       .  S
C1622      C1625   1.379       .  A
S1623      C1624   1.724       .  A
C1624      C1625   1.389       .  A
C1625      H1631   1.083       .  S
S1626      C1627   1.728       .  A
C1627      C1628   1.389       .  A
C1628      H1632   1.083       .  S
C1633      C1638   1.386       .  A
C1633      C1634   1.410       .  A
C1633      S1639   1.714       .  A
C1634      C1635   1.409       .  A
C1634      H1645   1.082       .  S
C1635      C1644   1.382       .  A
C1635      C1636   1.387       .  A
C1636      C1637   1.397       .  A
C1636      S1642   1.695       .  A
C1637      C1638   1.396       .  A
C1637      H1646   1.083       .  S
C1638      C1641   1.368       .  A
S1639      C1640   1.729       .  A
C1640      C1641   1.384       .  A
C1641      H1647   1.082       .  S
S1642      C1643   1.724       .  A
C1643      C1644   1.392       .  A
C1644      H1648   1.082       .  S
C1649      C1654   1.387       .  A
C1649      C1650   1.401       .  A
C1649      S1655   1.707       .  A
C1650      C1651   1.402       .  A
C1650      H1661   1.084       .  S
C1651      C1660   1.369       .  A
C1651      C1652   1.387       .  A
C1652      C1653   1.402       .  A
C1652      S1658   1.709       .  A
C1653      C1654   1.403       .  A
C1653      H1662   1.084       .  S
C1654      C1657   1.371       .  A
S1655      C1656   1.723       .  A
C1656      C1657   1.387       .  A
C1657      H1663   1.083       .  S
S1658      C1659   1.723       .  A
C1659      C1660   1.385       .  A
C1660      H1664   1.084       .  S
C1665      C1670   1.387       .  A
C1665      C1666   1.403       .  A
C1665      S1671   1.709       .  A
C1666      C1667   1.404       .  A
C1666      H1677   1.083       .  S
C1667      C1676   1.373       .  A
C1667      C1668   1.387       .  A
C1668      C1669   1.402       .  A
C1668      S1674   1.708       .  A
C1669      C1670   1.403       .  A
C1669      H1678   1.083       .  S
C1670      C1673   1.372       .  A
S1671      C1672   1.724       .  A
C1672      C1673   1.387       .  A
C1673      H1679   1.083       .  S
S1674      C1675   1.723       .  A
C1675      C1676   1.388       .  A
C1676      H1680   1.083       .  S
C1681      C1686   1.387       .  A
C1681      C1682   1.401       .  A
C1681      S1687   1.703       .  A
C1682      C1683   1.401       .  A
C1682      H1693   1.083       .  S
C1683      C1692   1.371       .  A
C1683      C1684   1.385       .  A
C1684      C1685   1.409       .  A
C1684      S1690   1.716       .  A
C1685      C1686   1.409       .  A
C1685      H1694   1.082       .  S
C1686      C1689   1.381       .  A
S1687      C1688   1.726       .  A
C1688      C1689   1.392       .  A
C1689      H1695   1.083       .  S
S1690      C1691   1.728       .  A
C1691      C1692   1.388       .  A
C1692      H1696   1.082       .  S
C1697      C1702   1.386       .  A
C1697      C1698   1.402       .  A
C1697      S1703   1.705       .  A
C1698      C1699   1.402       .  A
C1698      H1709   1.083       .  S
C1699      C1708   1.373       .  A
C1699      C1700   1.385       .  A
C1700      C1701   1.410       .  A
C1700      S1706   1.718       .  A
C1701      C1702   1.410       .  A
C1701      H1710   1.083       .  S
C1702      C1705   1.383       .  A
S1703      C1704   1.726       .  A
C1704      C1705   1.393       .  A
C1705      H1711   1.083       .  S
S1706      C1707   1.729       .  A
C1707      C1708   1.390       .  A
C1708      H1712   1.083       .  S
C1713      C1718   1.387       .  A
C1713      C1714   1.401       .  A
C1713      S1719   1.708       .  A
C1714      C1715   1.402       .  A
C1714      H1725   1.084       .  S
C1715      C1724   1.369       .  A
C1715      C1716   1.387       .  A
C1716      C1717   1.403       .  A
C1716      S1722   1.711       .  A
C1717      C1718   1.404       .  A
C1717      H1726   1.084       .  S
C1718      C1721   1.371       .  A
S1719      C1720   1.723       .  A
C1720      C1721   1.388       .  A
C1721      H1727   1.083       .  S
S1722      C1723   1.722       .  A
C1723      C1724   1.386       .  A
C1724      H1728   1.084       .  S
C1729      C1734   1.386       .  A
C1729      C1730   1.407       .  A
C1729      S1735   1.713       .  A
C1730      C1731   1.407   1_655  A
C1730      H1741   1.082       .  S
C1731      C1740   1.377       .  A
C1731      C1732   1.387       .  A
C1732      C1733   1.400       .  A
C1732      S1738   1.703       .  A
C1733      C1734   1.401   1_455  A
C1733      H1742   1.083       .  S
C1734      C1737   1.370       .  A
S1735      C1736   1.727       .  A
C1736      C1737   1.387       .  A
C1737      H1743   1.082       .  S
S1738      C1739   1.724       .  A
C1739      C1740   1.390       .  A
C1740      H1744   1.083       .  S
C1745      C1750   1.387       .  A
C1745      C1746   1.404       .  A
C1745      S1751   1.706       .  A
C1746      C1747   1.403       .  A
C1746      H1757   1.084       .  S
C1747      C1756   1.377       .  A
C1747      C1748   1.387       .  A
C1748      C1749   1.405       .  A
C1748      S1754   1.707       .  A
C1749      C1750   1.404       .  A
C1749      H1758   1.084       .  S
C1750      C1753   1.376       .  A
S1751      C1752   1.725       .  A
C1752      C1753   1.389       .  A
C1753      H1759   1.083       .  S
S1754      C1755   1.726       .  A
C1755      C1756   1.387       .  A
C1756      H1760   1.084       .  S
C1761      C1766   1.385       .  A
C1761      C1762   1.413       .  A
C1761      S1767   1.717       .  A
C1762      C1763   1.412       .  A
C1762      H1773   1.082       .  S
C1763      C1772   1.386       .  A
C1763      C1764   1.386       .  A
C1764      C1765   1.401       .  A
C1764      S1770   1.701       .  A
C1765      C1766   1.400       .  A
C1765      H1774   1.083       .  S
C1766      C1769   1.374       .  A
S1767      C1768   1.731       .  A
C1768      C1769   1.388       .  A
C1769      H1775   1.082       .  S
S1770      C1771   1.726       .  A
C1771      C1772   1.395       .  A
C1772      H1776   1.082       .  S
C1777      C1782   1.386       .  A
C1777      C1778   1.406       .  A
C1777      S1783   1.714       .  A
C1778      C1779   1.407       .  A
C1778      H1789   1.083       .  S
C1779      C1788   1.374       .  A
C1779      C1780   1.387       .  A
C1780      C1781   1.398       .  A
C1780      S1786   1.706       .  A
C1781      C1782   1.400       .  A
C1781      H1790   1.083       .  S
C1782      C1785   1.367       .  A
S1783      C1784   1.726       .  A
C1784      C1785   1.385       .  A
C1785      H1791   1.083       .  S
S1786      C1787   1.720       .  A
C1787      C1788   1.390       .  A
C1788      H1792   1.083       .  S
C1793      C1798   1.386       .  A
C1793      C1794   1.401       .  A
C1793      S1799   1.705       .  A
C1794      C1795   1.402       .  A
C1794      H1805   1.083       .  S
C1795      C1804   1.371       .  A
C1795      C1796   1.385       .  A
C1796      C1797   1.411       .  A
C1796      S1802   1.719       .  A
C1797      C1798   1.411       .  A
C1797      H1806   1.083       .  S
C1798      C1801   1.382       .  A
S1799      C1800   1.725       .  A
C1800      C1801   1.394       .  A
C1801      H1807   1.082       .  S
S1802      C1803   1.729       .  A
C1803      C1804   1.389       .  A
C1804      H1808   1.083       .  S
C1809      C1814   1.386       .  A
C1809      C1810   1.403       .  A
C1809      S1815   1.711       .  A
C1810      C1811   1.404       .  A
C1810      H1821   1.084       .  S
C1811      C1820   1.371       .  A
C1811      C1812   1.386       .  A
C1812      C1813   1.404       .  A
C1812      S1818   1.712       .  A
C1813      C1814   1.405       .  A
C1813      H1822   1.084       .  S
C1814      C1817   1.372       .  A
S1815      C1816   1.724       .  A
C1816      C1817   1.389       .  A
C1817      H1823   1.084       .  S
S1818      C1819   1.724       .  A
C1819      C1820   1.388       .  A
C1820      H1824   1.084       .  S
C1825      C1830   1.387       .  A
C1825      C1826   1.405       .  A
C1825      S1831   1.702       .  A
C1826      C1827   1.403       .  A
C1826      H1837   1.083       .  S
C1827      C1836   1.379       .  A
C1827      C1828   1.386       .  A
C1828      C1829   1.410       .  A
C1828      S1834   1.713       .  A
C1829      C1830   1.409       .  A
C1829      H1838   1.083       .  S
C1830      C1833   1.386       .  A
S1831      C1832   1.729       .  A
C1832      C1833   1.392       .  A
C1833      H1839   1.083       .  S
S1834      C1835   1.729       .  A
C1835      C1836   1.390       .  A
C1836      H1840   1.083       .  S
C1841      C1846   1.387       .  A
C1841      C1842   1.402       .  A
C1841      S1847   1.704       .  A
C1842      C1843   1.402       .  A
C1842      H1853   1.084       .  S
C1843      C1852   1.375       .  A
C1843      C1844   1.386       .  A
C1844      C1845   1.407       .  A
C1844      S1850   1.710       .  A
C1845      C1846   1.407       .  A
C1845      H1854   1.084       .  S
C1846      C1849   1.379       .  A
S1847      C1848   1.724       .  A
C1848      C1849   1.390       .  A
C1849      H1855   1.083       .  S
S1850      C1851   1.728       .  A
C1851      C1852   1.387       .  A
C1852      H1856   1.083       .  S
C1857      C1862   1.386       .  A
C1857      C1858   1.406       .  A
C1857      S1863   1.711       .  A
C1858      C1859   1.406       .  A
C1858      H1869   1.084       .  S
C1859      C1868   1.378       .  A
C1859      C1860   1.387       .  A
C1860      C1861   1.404       .  A
C1860      S1866   1.708       .  A
C1861      C1862   1.403       .  A
C1861      H1870   1.084       .  S
C1862      C1865   1.375       .  A
S1863      C1864   1.728       .  A
C1864      C1865   1.388       .  A
C1865      H1871   1.083       .  S
S1866      C1867   1.724       .  A
C1867      C1868   1.389       .  A
C1868      H1872   1.083       .  S
C1873      C1878   1.387       .  A
C1873      C1874   1.401       .  A
C1873      S1879   1.698       .  A
C1874      C1875   1.400       .  A
C1874      H1885   1.083       .  S
C1875      C1884   1.373       .  A
C1875      C1876   1.386       .  A
C1876      C1877   1.408       .  A
C1876      S1882   1.710       .  A
C1877      C1878   1.407       .  A
C1877      H1886   1.083       .  S
C1878      C1881   1.382       .  A
S1879      C1880   1.727       .  A
C1880      C1881   1.390       .  A
C1881      H1887   1.083       .  S
S1882      C1883   1.728       .  A
C1883      C1884   1.387       .  A
C1884      H1888   1.082       .  S
C1889      C1894   1.385       .  A
C1889      C1890   1.410       .  A
C1889      S1895   1.719       .  A
C1890      C1891   1.411       .  A
C1890      H1901   1.083       .  S
C1891      C1900   1.381       .  A
C1891      C1892   1.386       .  A
C1892      C1893   1.400       .  A
C1892      S1898   1.704       .  A
C1893      C1894   1.401       .  A
C1893      H1902   1.084       .  S
C1894      C1897   1.369       .  A
S1895      C1896   1.729       .  A
C1896      C1897   1.389       .  A
C1897      H1903   1.084       .  S
S1898      C1899   1.724       .  A
C1899      C1900   1.393       .  A
C1900      H1904   1.083       .  S
C1905      C1910   1.387       .  A
C1905      C1906   1.402       .  A
C1905      S1911   1.707       .  A
C1906      C1907   1.403       .  A
C1906      H1917   1.083       .  S
C1907      C1916   1.372       .  A
C1907      C1908   1.387       .  A
C1908      C1909   1.403       .  A
C1908      S1914   1.708       .  A
C1909      C1910   1.403       .  A
C1909      H1918   1.083       .  S
C1910      C1913   1.372       .  A
S1911      C1912   1.724       .  A
C1912      C1913   1.388       .  A
C1913      H1919   1.083       .  S
S1914      C1915   1.723       .  A
C1915      C1916   1.386       .  A
C1916      H1920   1.083       .  S
C1921      C1926   1.386       .  A
C1921      C1922   1.410       .  A
C1921      S1927   1.711       .  A
C1922      C1923   1.408       .  A
C1922      H1933   1.083       .  S
C1923      C1932   1.386       .  A
C1923      C1924   1.387       .  A
C1924      C1925   1.403       .  A
C1924      S1930   1.699       .  A
C1925      C1926   1.401       .  A
C1925      H1934   1.083       .  S
C1926      C1929   1.377       .  A
S1927      C1928   1.729       .  A
C1928      C1929   1.389       .  A
C1929      H1935   1.083       .  S
S1930      C1931   1.729       .  A
C1931      C1932   1.392       .  A
C1932      H1936   1.083       .  S
C1937      C1942   1.386       .  A
C1937      C1938   1.403       .  A
C1937      S1943   1.711       .  A
C1938      C1939   1.404       .  A
C1938      H1949   1.083       .  S
C1939      C1948   1.372       .  A
C1939      C1940   1.386       .  A
C1940      C1941   1.405       .  A
C1940      S1946   1.714       .  A
C1941      C1942   1.407       .  A
C1941      H1950   1.083       .  S
C1942      C1945   1.375       .  A
S1943      C1944   1.724       .  A
C1944      C1945   1.390       .  A
C1945      H1951   1.083       .  S
S1946      C1947   1.725       .  A
C1947      C1948   1.388       .  A
C1948      H1952   1.083       .  S
C1953      C1958   1.386       .  A
C1953      C1954   1.411       .  A
C1953      S1959   1.715       .  A
C1954      C1955   1.410       .  A
C1954      H1965   1.083       .  S
C1955      C1964   1.385       .  A
C1955      C1956   1.387       .  A
C1956      C1957   1.400       .  A
C1956      S1962   1.698       .  A
C1957      C1958   1.399       .  A
C1957      H1966   1.083       .  S
C1958      C1961   1.372       .  A
S1959      C1960   1.730       .  A
C1960      C1961   1.387       .  A
C1961      H1967   1.082       .  S
S1962      C1963   1.726       .  A
C1963      C1964   1.392       .  A
C1964      H1968   1.083       .  S
C1969      C1974   1.387       .  A
C1969      C1970   1.404       .  A
C1969      S1975   1.708       .  A
C1970      C1971   1.404       .  A
C1970      H1981   1.084       .  S
C1971      C1980   1.375       .  A
C1971      C1972   1.387       .  A
C1972      C1973   1.404       .  A
C1972      S1978   1.708       .  A
C1973      C1974   1.404       .  A
C1973      H1982   1.084       .  S
C1974      C1977   1.376       .  A
S1975      C1976   1.725       .  A
C1976      C1977   1.388       .  A
C1977      H1983   1.084       .  S
S1978      C1979   1.725       .  A
C1979      C1980   1.388       .  A
C1980      H1984   1.083       .  S
C1985      C1990   1.386       .  A
C1985      C1986   1.400       .  A
C1985      S1991   1.706       .  A
C1986      C1987   1.401       .  A
C1986      H1997   1.084       .  S
C1987      C1996   1.368       .  A
C1987      C1988   1.385       .  A
C1988      C1989   1.411       .  A
C1988      S1994   1.722       .  A
C1989      C1990   1.412       .  A
C1989      H1998   1.083       .  S
C1990      C1993   1.381       .  A
S1991      C1992   1.724       .  A
C1992      C1993   1.395       .  A
C1993      H1999   1.083       .  S
S1994      C1995   1.729       .  A
C1995      C1996   1.390       .  A
C1996      H2000   1.084       .  S
C2001      C2006   1.387       .  A
C2001      C2002   1.400       .  A
C2001      S2007   1.708       .  A
C2002      C2003   1.402       .  A
C2002      H2013   1.084       .  S
C2003      C2012   1.370       .  A
C2003      C2004   1.386       .  A
C2004      C2005   1.407       .  A
C2004      S2010   1.716       .  A
C2005      C2006   1.409       .  A
C2005      H2014   1.084       .  S
C2006      C2009   1.376       .  A
S2007      C2008   1.722       .  A
C2008      C2009   1.391       .  A
C2009      H2015   1.083       .  S
S2010      C2011   1.727       .  A
C2011      C2012   1.387       .  A
C2012      H2016   1.084       .  S
C2017      C2022   1.385       .  A
C2017      C2018   1.413       .  A
C2017      S2023   1.719       .  A
C2018      C2019   1.412       .  A
C2018      H2029   1.082       .  S
C2019      C2028   1.386       .  A
C2019      C2020   1.386       .  A
C2020      C2021   1.401       .  A
C2020      S2026   1.701       .  A
C2021      C2022   1.401       .  A
C2021      H2030   1.082       .  S
C2022      C2025   1.372       .  A
S2023      C2024   1.731       .  A
C2024      C2025   1.389       .  A
C2025      H2031   1.081       .  S
S2026      C2027   1.726       .  A
C2027      C2028   1.395       .  A
C2028      H2032   1.082       .  S
C2033      C2038   1.386       .  A
C2033      C2034   1.406       .  A
C2033      S2039   1.710       .  A
C2034      C2035   1.406       .  A
C2034      H2045   1.083       .  S
C2035      C2044   1.378       .  A
C2035      C2036   1.386       .  A
C2036      C2037   1.406       .  A
C2036      S2042   1.709       .  A
C2037      C2038   1.406       .  A
C2037      H2046   1.083       .  S
C2038      C2041   1.378       .  A
S2039      C2040   1.726       .  A
C2040      C2041   1.389       .  A
C2041      H2047   1.083       .  S
S2042      C2043   1.726       .  A
C2043      C2044   1.389       .  A
C2044      H2048   1.083       .  S
C2049      C2054   1.387       .  A
C2049      C2050   1.405       .  A
C2049      S2055   1.709       .  A
C2050      C2051   1.405       .  A
C2050      H2061   1.083       .  S
C2051      C2060   1.376       .  A
C2051      C2052   1.387       .  A
C2052      C2053   1.403       .  A
C2052      S2058   1.707       .  A
C2053      C2054   1.403       .  A
C2053      H2062   1.083       .  S
C2054      C2057   1.374       .  A
S2055      C2056   1.726       .  A
C2056      C2057   1.387       .  A
C2057      H2063   1.083       .  S
S2058      C2059   1.724       .  A
C2059      C2060   1.389       .  A
C2060      H2064   1.083       .  S
C2065      C2070   1.387       .  A
C2065      C2066   1.396       .  A
C2065      S2071   1.699       .  A
C2066      C2067   1.397       .  A
C2066      H2077   1.083       .  S
C2067      C2076   1.366       .  A
C2067      C2068   1.385       .  A
C2068      C2069   1.409       .  A
C2068      S2074   1.716       .  A
C2069      C2070   1.410       .  A
C2069      H2078   1.083       .  S
C2070      C2073   1.379       .  A
S2071      C2072   1.722       .  A
C2072      C2073   1.392       .  A
C2073      H2079   1.083       .  S
S2074      C2075   1.729       .  A
C2075      C2076   1.385       .  A
C2076      H2080   1.082       .  S
C2081      C2086   1.385       .  A
C2081      C2082   1.412       .  A
C2081      S2087   1.716       .  A
C2082      C2083   1.411       .  A
C2082      H2093   1.082       .  S
C2083      C2092   1.385       .  A
C2083      C2084   1.387       .  A
C2084      C2085   1.399       .  A
C2084      S2090   1.697       .  A
C2085      C2086   1.399       .  A
C2085      H2094   1.083       .  S
C2086      C2089   1.371       .  A
S2087      C2088   1.730       .  A
C2088      C2089   1.387       .  A
C2089      H2095   1.082       .  S
S2090      C2091   1.726       .  A
C2091      C2092   1.393       .  A
C2092      H2096   1.083       .  S
C2097      C2102   1.387       .  A
C2097      C2098   1.400       .  A
C2097      S2103   1.707       .  A
C2098      C2099   1.401       .  A
C2098      H2109   1.084       .  S
C2099      C2108   1.368       .  A
C2099      C2100   1.386       .  A
C2100      C2101   1.405       .  A
C2100      S2106   1.714       .  A
C2101      C2102   1.407       .  A
C2101      H2110   1.084       .  S
C2102      C2105   1.374       .  A
S2103      C2104   1.722       .  A
C2104      C2105   1.390       .  A
C2105      H2111   1.083       .  S
S2106      C2107   1.725       .  A
C2107      C2108   1.385       .  A
C2108      H2112   1.084       .  S
C2113      C2118   1.386       .  A
C2113      C2114   1.402       .  A
C2113      S2119   1.705       .  A
C2114      C2115   1.402       .  A
C2114      H2125   1.084       .  S
C2115      C2124   1.372       .  A
C2115      C2116   1.386       .  A
C2116      C2117   1.408       .  A
C2116      S2122   1.715       .  A
C2117      C2118   1.408       .  A
C2117      H2126   1.084       .  S
C2118      C2121   1.379       .  A
S2119      C2120   1.725       .  A
C2120      C2121   1.391       .  A
C2121      H2127   1.083       .  S
S2122      C2123   1.727       .  A
C2123      C2124   1.389       .  A
C2124      H2128   1.084       .  S
C2129      C2134   1.387       .  A
C2129      C2130   1.402       .  A
C2129      S2135   1.707       .  A
C2130      C2131   1.403       .  A
C2130      H2141   1.084       .  S
C2131      C2140   1.371       .  A
C2131      C2132   1.387       .  A
C2132      C2133   1.403       .  A
C2132      S2138   1.710       .  A
C2133      C2134   1.404       .  A
C2133      H2142   1.084       .  S
C2134      C2137   1.373       .  A
S2135      C2136   1.723       .  A
C2136      C2137   1.388       .  A
C2137      H2143   1.083       .  S
S2138      C2139   1.724       .  A
C2139      C2140   1.387       .  A
C2140      H2144   1.083       .  S
C2145      C2150   1.387       .  A
C2145      C2146   1.400       .  A
C2145      S2151   1.700       .  A
C2146      C2147   1.400       .  A
C2146      H2157   1.083       .  S
C2147      C2156   1.372       .  A
C2147      C2148   1.385       .  A
C2148      C2149   1.412       .  A
C2148      S2154   1.717       .  A
C2149      C2150   1.411       .  A
C2149      H2158   1.082       .  S
C2150      C2153   1.385       .  A
S2151      C2152   1.725       .  A
C2152      C2153   1.394       .  A
C2153      H2159   1.083       .  S
S2154      C2155   1.730       .  A
C2155      C2156   1.388       .  A
C2156      H2160   1.082       .  S
C2161      C2166   1.386       .  A
C2161      C2162   1.405       .  A
C2161      S2167   1.715       .  A
C2162      C2163   1.407       .  A
C2162      H2173   1.083       .  S
C2163      C2172   1.374       .  A
C2163      C2164   1.387       .  A
C2164      C2165   1.401       .  A
C2164      S2170   1.708       .  A
C2165      C2166   1.402       .  A
C2165      H2174   1.083       .  S
C2166      C2169   1.369       .  A
S2167      C2168   1.725       .  A
C2168      C2169   1.387       .  A
C2169      H2175   1.083       .  S
S2170      C2171   1.722       .  A
C2171      C2172   1.389       .  A
C2172      H2176   1.083       .  S
C2177      C2182   1.386       .  A
C2177      C2178   1.407       .  A
C2177      S2183   1.713       .  A
C2178      C2179   1.407       .  A
C2178      H2189   1.083       .  S
C2179      C2188   1.378       .  A
C2179      C2180   1.387       .  A
C2180      C2181   1.401       .  A
C2180      S2186   1.705       .  A
C2181      C2182   1.402       .  A
C2181      H2190   1.083       .  S
C2182      C2185   1.371       .  A
S2183      C2184   1.727       .  A
C2184      C2185   1.388       .  A
C2185      H2191   1.082       .  S
S2186      C2187   1.725       .  A
C2187      C2188   1.391       .  A
C2188      H2192   1.083       .  S
C2193      C2198   1.386       .  A
C2193      C2194   1.405       .  A
C2193      S2199   1.712       .  A
C2194      C2195   1.406       .  A
C2194      H2205   1.083       .  S
C2195      C2204   1.374       .  A
C2195      C2196   1.387       .  A
C2196      C2197   1.402       .  A
C2196      S2202   1.707       .  A
C2197      C2198   1.403       .  A
C2197      H2206   1.083       .  S
C2198      C2201   1.371       .  A
S2199      C2200   1.725       .  A
C2200      C2201   1.388       .  A
C2201      H2207   1.083       .  S
S2202      C2203   1.724       .  A
C2203      C2204   1.389       .  A
C2204      H2208   1.083       .  S
C2209      C2214   1.386       .  A
C2209      C2210   1.407       .  A
C2209      S2215   1.714       .  A
C2210      C2211   1.407       .  A
C2210      H2221   1.083       .  S
C2211      C2220   1.377       .  A
C2211      C2212   1.386       .  A
C2212      C2213   1.401       .  A
C2212      S2218   1.705       .  A
C2213      C2214   1.402       .  A
C2213      H2222   1.084       .  S
C2214      C2217   1.370       .  A
S2215      C2216   1.727       .  A
C2216      C2217   1.388       .  A
C2217      H2223   1.084       .  S
S2218      C2219   1.725       .  A
C2219      C2220   1.390       .  A
C2220      H2224   1.083       .  S
C2225      C2230   1.386       .  A
C2225      C2226   1.407       .  A
C2225      S2231   1.715       .  A
C2226      C2227   1.408       .  A
C2226      H2237   1.084       .  S
C2227      C2236   1.377       .  A
C2227      C2228   1.386       .  A
C2228      C2229   1.401       .  A
C2228      S2234   1.708       .  A
C2229      C2230   1.402       .  A
C2229      H2238   1.084       .  S
C2230      C2233   1.371       .  A
S2231      C2232   1.726       .  A
C2232      C2233   1.386       .  A
C2233      H2239   1.084       .  S
S2234      C2235   1.722       .  A
C2235      C2236   1.392       .  A
C2236      H2240   1.083       .  S
C2241      C2246   1.387       .  A
C2241      C2242   1.404       .  A
C2241      S2247   1.710       .  A
C2242      C2243   1.405       .  A
C2242      H2253   1.084       .  S
C2243      C2252   1.375       .  A
C2243      C2244   1.387       .  A
C2244      C2245   1.402       .  A
C2244      S2250   1.707       .  A
C2245      C2246   1.402       .  A
C2245      H2254   1.084       .  S
C2246      C2249   1.372       .  A
S2247      C2248   1.724       .  A
C2248      C2249   1.386       .  A
C2249      H2255   1.084       .  S
S2250      C2251   1.724       .  A
C2251      C2252   1.389       .  A
C2252      H2256   1.083       .  S
C2257      C2262   1.386       .  A
C2257      C2258   1.402       .  A
C2257      S2263   1.705       .  A
C2258      C2259   1.402       .  A
C2258      H2269   1.084       .  S
C2259      C2268   1.373       .  A
C2259      C2260   1.386       .  A
C2260      C2261   1.409       .  A
C2260      S2266   1.715       .  A
C2261      C2262   1.408       .  A
C2261      H2270   1.083       .  S
C2262      C2265   1.380       .  A
S2263      C2264   1.726       .  A
C2264      C2265   1.392       .  A
C2265      H2271   1.083       .  S
S2266      C2267   1.728       .  A
C2267      C2268   1.389       .  A
C2268      H2272   1.083       .  S
C2273      C2278   1.387       .  A
C2273      C2274   1.399       .  A
C2273      S2279   1.701       .  A
C2274      C2275   1.399       .  A
C2274      H2285   1.082       .  S
C2275      C2284   1.369       .  A
C2275      C2276   1.386       .  A
C2276      C2277   1.410       .  A
C2276      S2282   1.715       .  A
C2277      C2278   1.410       .  A
C2277      H2286   1.082       .  S
C2278      C2281   1.381       .  A
S2279      C2280   1.723       .  A
C2280      C2281   1.393       .  A
C2281      H2287   1.082       .  S
S2282      C2283   1.729       .  A
C2283      C2284   1.386       .  A
C2284      H2288   1.082       .  S
C2289      C2294   1.386       .  A
C2289      C2290   1.409       .  A
C2289      S2295   1.714       .  A
C2290      C2291   1.409       .  A
C2290      H2301   1.082       .  S
C2291      C2300   1.380   1_655  A
C2291      C2292   1.387   1_655  A
C2292      C2293   1.399   1_455  A
C2292      S2298   1.700       .  A
C2293      C2294   1.399       .  A
C2293      H2302   1.083       .  S
C2294      C2297   1.369       .  A
S2295      C2296   1.728       .  A
C2296      C2297   1.386       .  A
C2297      H2303   1.082       .  S
S2298      C2299   1.724       .  A
C2299      C2300   1.392       .  A
C2300      H2304   1.083       .  S
C2305      C2310   1.387       .  A
C2305      C2306   1.401       .  A
C2305      S2311   1.707       .  A
C2306      C2307   1.402       .  A
C2306      H2317   1.084       .  S
C2307      C2316   1.370       .  A
C2307      C2308   1.387       .  A
C2308      C2309   1.403       .  A
C2308      S2314   1.709       .  A
C2309      C2310   1.404       .  A
C2309      H2318   1.083       .  S
C2310      C2313   1.372       .  A
S2311      C2312   1.722       .  A
C2312      C2313   1.388       .  A
C2313      H2319   1.083       .  S
S2314      C2315   1.724       .  A
C2315      C2316   1.386       .  A
C2316      H2320   1.083       .  S
C2321      C2326   1.387       .  A
C2321      C2322   1.403       .  A
C2321      S2327   1.710       .  A
C2322      C2323   1.404       .  A
C2322      H2333   1.084       .  S
C2323      C2332   1.371       .  A
C2323      C2324   1.387       .  A
C2324      C2325   1.400       .  A
C2324      S2330   1.706       .  A
C2325      C2326   1.401       .  A
C2325      H2334   1.084       .  S
C2326      C2329   1.368       .  A
S2327      C2328   1.723       .  A
C2328      C2329   1.386       .  A
C2329      H2335   1.084       .  S
S2330      C2331   1.722       .  A
C2331      C2332   1.387       .  A
C2332      H2336   1.084       .  S
C2337      C2342   1.386       .  A
C2337      C2338   1.401       .  A
C2337      S2343   1.705       .  A
C2338      C2339   1.401       .  A
C2338      H2349   1.084       .  S
C2339      C2348   1.371       .  A
C2339      C2340   1.385       .  A
C2340      C2341   1.411       .  A
C2340      S2346   1.720       .  A
C2341      C2342   1.412       .  A
C2341      H2350   1.083       .  S
C2342      C2345   1.382       .  A
S2343      C2344   1.724       .  A
C2344      C2345   1.394       .  A
C2345      H2351   1.083       .  S
S2346      C2347   1.729       .  A
C2347      C2348   1.390       .  A
C2348      H2352   1.084       .  S
C2353      C2358   1.386       .  A
C2353      C2354   1.406       .  A
C2353      S2359   1.714       .  A
C2354      C2355   1.407       .  A
C2354      H2365   1.083       .  S
C2355      C2364   1.376       .  A
C2355      C2356   1.387       .  A
C2356      C2357   1.401       .  A
C2356      S2362   1.708       .  A
C2357      C2358   1.403       .  A
C2357      H2366   1.084       .  S
C2358      C2361   1.371       .  A
S2359      C2360   1.726       .  A
C2360      C2361   1.388       .  A
C2361      H2367   1.083       .  S
S2362      C2363   1.722       .  A
C2363      C2364   1.390       .  A
C2364      H2368   1.083       .  S
C2369      C2374   1.386       .  A
C2369      C2370   1.403       .  A
C2369      S2375   1.708       .  A
C2370      C2371   1.404       .  A
C2370      H2381   1.083       .  S
C2371      C2380   1.373       .  A
C2371      C2372   1.386       .  A
C2372      C2373   1.408       .  A
C2372      S2378   1.716       .  A
C2373      C2374   1.408       .  A
C2373      H2382   1.083       .  S
C2374      C2377   1.379       .  A
S2375      C2376   1.727       .  A
C2376      C2377   1.392       .  A
C2377      H2383   1.083       .  S
S2378      C2379   1.727       .  A
C2379      C2380   1.391       .  A
C2380      H2384   1.083       .  S
C2385      C2390   1.386       .  A
C2385      C2386   1.405       .  A
C2385      S2391   1.713       .  A
C2386      C2387   1.406       .  A
C2386      H2397   1.084       .  S
C2387      C2396   1.374       .  A
C2387      C2388   1.386       .  A
C2388      C2389   1.404       .  A
C2388      S2394   1.713       .  A
C2389      C2390   1.405       .  A
C2389      H2398   1.084       .  S
C2390      C2393   1.374       .  A
S2391      C2392   1.725       .  A
C2392      C2393   1.389       .  A
C2393      H2399   1.083       .  S
S2394      C2395   1.723       .  A
C2395      C2396   1.389       .  A
C2396      H2400   1.084       .  S
C2401      C2406   1.386       .  A
C2401      C2402   1.410       .  A
C2401      S2407   1.715       .  A
C2402      C2403   1.410       .  A
C2402      H2413   1.082       .  S
C2403      C2412   1.382       .  A
C2403      C2404   1.387       .  A
C2404      C2405   1.397       .  A
C2404      S2410   1.698       .  A
C2405      C2406   1.397       .  A
C2405      H2414   1.083       .  S
C2406      C2409   1.368       .  A
S2407      C2408   1.729       .  A
C2408      C2409   1.385       .  A
C2409      H2415   1.082       .  S
S2410      C2411   1.723       .  A
C2411      C2412   1.392       .  A
C2412      H2416   1.082       .  S
C2417      C2422   1.386       .  A
C2417      C2418   1.404       .  A
C2417      S2423   1.709       .  A
C2418      C2419   1.404       .  A
C2418      H2429   1.083       .  S
C2419      C2428   1.374       .  A
C2419      C2420   1.387       .  A
C2420      C2421   1.402       .  A
C2420      S2426   1.708       .  A
C2421      C2422   1.403       .  A
C2421      H2430   1.083       .  S
C2422      C2425   1.373       .  A
S2423      C2424   1.725       .  A
C2424      C2425   1.387       .  A
C2425      H2431   1.083       .  S
S2426      C2427   1.724       .  A
C2427      C2428   1.388       .  A
C2428      H2432   1.083       .  S
C2433      C2438   1.387       .  A
C2433      C2434   1.404       .  A
C2433      S2439   1.709       .  A
C2434      C2435   1.404       .  A
C2434      H2445   1.084       .  S
C2435      C2444   1.374       .  A
C2435      C2436   1.386       .  A
C2436      C2437   1.405       .  A
C2436      S2442   1.712       .  A
C2437      C2438   1.405       .  A
C2437      H2446   1.084       .  S
C2438      C2441   1.375       .  A
S2439      C2440   1.724       .  A
C2440      C2441   1.389       .  A
C2441      H2447   1.083       .  S
S2442      C2443   1.725       .  A
C2443      C2444   1.390       .  A
C2444      H2448   1.083       .  S
C2449      C2454   1.386       .  A
C2449      C2450   1.409       .  A
C2449      S2455   1.713       .  A
C2450      C2451   1.409       .  A
C2450      H2461   1.083       .  S
C2451      C2460   1.382       .  A
C2451      C2452   1.387       .  A
C2452      C2453   1.401       .  A
C2452      S2458   1.701       .  A
C2453      C2454   1.400       .  A
C2453      H2462   1.083       .  S
C2454      C2457   1.372       .  A
S2455      C2456   1.728       .  A
C2456      C2457   1.387       .  A
C2457      H2463   1.083       .  S
S2458      C2459   1.725       .  A
C2459      C2460   1.392       .  A
C2460      H2464   1.083       .  S
C2465      C2470   1.385       .  A
C2465      C2466   1.411       .  A
C2465      S2471   1.716       .  A
C2466      C2467   1.410       .  A
C2466      H2477   1.083       .  S
C2467      C2476   1.384       .  A
C2467      C2468   1.387       .  A
C2468      C2469   1.398       .  A
C2468      S2474   1.697       .  A
C2469      C2470   1.398       .  A
C2469      H2478   1.083       .  S
C2470      C2473   1.369       .  A
S2471      C2472   1.730       .  A
C2472      C2473   1.386       .  A
C2473      H2479   1.082       .  S
S2474      C2475   1.725       .  A
C2475      C2476   1.393       .  A
C2476      H2480   1.083       .  S
C2481      C2486   1.386       .  A
C2481      C2482   1.400       .  A
C2481      S2487   1.705       .  A
C2482      C2483   1.401       .  A
C2482      H2493   1.083       .  S
C2483      C2492   1.369       .  A
C2483      C2484   1.386       .  A
C2484      C2485   1.406       .  A
C2484      S2490   1.714       .  A
C2485      C2486   1.407       .  A
C2485      H2494   1.083       .  S
C2486      C2489   1.376       .  A
S2487      C2488   1.723       .  A
C2488      C2489   1.391       .  A
C2489      H2495   1.083       .  S
S2490      C2491   1.726       .  A
C2491      C2492   1.388       .  A
C2492      H2496   1.083       .  S
C2497      C2502   1.387       .  A
C2497      C2498   1.400       .  A
C2497      S2503   1.708       .  A
C2498      C2499   1.402       .  A
C2498      H2509   1.084       .  S
C2499      C2508   1.367       .  A
C2499      C2500   1.386       .  A
C2500      C2501   1.403       .  A
C2500      S2506   1.712       .  A
C2501      C2502   1.405       .  A
C2501      H2510   1.084       .  S
C2502      C2505   1.370       .  A
S2503      C2504   1.721       .  A
C2504      C2505   1.388       .  A
C2505      H2511   1.084       .  S
S2506      C2507   1.724       .  A
C2507      C2508   1.387       .  A
C2508      H2512   1.083       .  S
C2513      C2518   1.386       .  A
C2513      C2514   1.403       .  A
C2513      S2519   1.709       .  A
C2514      C2515   1.404       .  A
C2514      H2525   1.084       .  S
C2515      C2524   1.372       .  A
C2515      C2516   1.387       .  A
C2516      C2517   1.402       .  A
C2516      S2522   1.710       .  A
C2517      C2518   1.404       .  A
C2517      H2526   1.084       .  S
C2518      C2521   1.371       .  A
S2519      C2520   1.724       .  A
C2520      C2521   1.389       .  A
C2521      H2527   1.083       .  S
S2522      C2523   1.722       .  A
C2523      C2524   1.387       .  A
C2524      H2528   1.083       .  S
C2529      C2534   1.387       .  A
C2529      C2530   1.396       .  A
C2529      S2535   1.701       .  A
C2530      C2531   1.398       .  A
C2530      H2541   1.084       .  S
C2531      C2540   1.363       .  A
C2531      C2532   1.385       .  A
C2532      C2533   1.408       .  A
C2532      S2538   1.718       .  A
C2533      C2534   1.409       .  A
C2533      H2542   1.083       .  S
C2534      C2537   1.376       .  A
S2535      C2536   1.722       .  A
C2536      C2537   1.391       .  A
C2537      H2543   1.083       .  S
S2538      C2539   1.727       .  A
C2539      C2540   1.386       .  A
C2540      H2544   1.084       .  S
C2545      C2550   1.387       .  A
C2545      C2546   1.401       .  A
C2545      S2551   1.709       .  A
C2546      C2547   1.403       .  A
C2546      H2557   1.083       .  S
C2547      C2556   1.369       .  A
C2547      C2548   1.386       .  A
C2548      C2549   1.403       .  A
C2548      S2554   1.711       .  A
C2549      C2550   1.405       .  A
C2549      H2558   1.083       .  S
C2550      C2553   1.371       .  A
S2551      C2552   1.722       .  A
C2552      C2553   1.388       .  A
C2553      H2559   1.083       .  S
S2554      C2555   1.724       .  A
C2555      C2556   1.388       .  A
C2556      H2560   1.083       .  S
C2561      C2566   1.386       .  A
C2561      C2562   1.399       .  A
C2561      S2567   1.706       .  A
C2562      C2563   1.401       .  A
C2562      H2573   1.083       .  S
C2563      C2572   1.366       .  A
C2563      C2564   1.385       .  A
C2564      C2565   1.407       .  A
C2564      S2570   1.719       .  A
C2565      C2566   1.409       .  A
C2565      H2574   1.083       .  S
C2566      C2569   1.375       .  A
S2567      C2568   1.723       .  A
C2568      C2569   1.391       .  A
C2569      H2575   1.083       .  S
S2570      C2571   1.727       .  A
C2571      C2572   1.390       .  A
C2572      H2576   1.083       .  S
C2577      C2582   1.387       .  A
C2577      C2578   1.401       .  A
C2577      S2583   1.705       .  A
C2578      C2579   1.401       .  A
C2578      H2589   1.084       .  S
C2579      C2588   1.371       .  A
C2579      C2580   1.387       .  A
C2580      C2581   1.403       .  A
C2580      S2586   1.707       .  A
C2581      C2582   1.403       .  A
C2581      H2590   1.083       .  S
C2582      C2585   1.373       .  A
S2583      C2584   1.723       .  A
C2584      C2585   1.387       .  A
C2585      H2591   1.083       .  S
S2586      C2587   1.724       .  A
C2587      C2588   1.386       .  A
C2588      H2592   1.083       .  S
C2593      C2598   1.387       .  A
C2593      C2594   1.396       .  A
C2593      S2599   1.700       .  A
C2594      C2595   1.398       .  A
C2594      H2605   1.084       .  S
C2595      C2604   1.364       .  A
C2595      C2596   1.385       .  A
C2596      C2597   1.409       .  A
C2596      S2602   1.718       .  A
C2597      C2598   1.410       .  A
C2597      H2606   1.083       .  S
C2598      C2601   1.378       .  A
S2599      C2600   1.721       .  A
C2600      C2601   1.392       .  A
C2601      H2607   1.083       .  S
S2602      C2603   1.728       .  A
C2603      C2604   1.386       .  A
C2604      H2608   1.084       .  S
C2609      C2614   1.387       .  A
C2609      C2610   1.403       .  A
C2609      S2615   1.710       .  A
C2610      C2611   1.404       .  A
C2610      H2621   1.083       .  S
C2611      C2620   1.372       .  A
C2611      C2612   1.387       .  A
C2612      C2613   1.403       .  A
C2612      S2618   1.710       .  A
C2613      C2614   1.404       .  A
C2613      H2622   1.083       .  S
C2614      C2617   1.372       .  A
S2615      C2616   1.722       .  A
C2616      C2617   1.387       .  A
C2617      H2623   1.083       .  S
S2618      C2619   1.723       .  A
C2619      C2620   1.387       .  A
C2620      H2624   1.083       .  S
C2625      C2630   1.387       .  A
C2625      C2626   1.399       .  A
C2625      S2631   1.705       .  A
C2626      C2627   1.400       .  A
C2626      H2637   1.083       .  S
C2627      C2636   1.368       .  A
C2627      C2628   1.386       .  A
C2628      C2629   1.407       .  A
C2628      S2634   1.716       .  A
C2629      C2630   1.408       .  A
C2629      H2638   1.083       .  S
C2630      C2633   1.377       .  A
S2631      C2632   1.720       .  A
C2632      C2633   1.389       .  A
C2633      H2639   1.083       .  S
S2634      C2635   1.726       .  A
C2635      C2636   1.385       .  A
C2636      H2640   1.083       .  S
C2641      C2646   1.386       .  A
C2641      C2642   1.401       .  A
C2641      S2647   1.702       .  A
C2642      C2643   1.401       .  A
C2642      H2653   1.084       .  S
C2643      C2652   1.372       .  A
C2643      C2644   1.386       .  A
C2644      C2645   1.408       .  A
C2644      S2650   1.713       .  A
C2645      C2646   1.408       .  A
C2645      H2654   1.083       .  S
C2646      C2649   1.381       .  A
S2647      C2648   1.725       .  A
C2648      C2649   1.392       .  A
C2649      H2655   1.083       .  S
S2650      C2651   1.727       .  A
C2651      C2652   1.388       .  A
C2652      H2656   1.084       .  S
C2657      C2662   1.386       .  A
C2657      C2658   1.402       .  A
C2657      S2663   1.704       .  A
C2658      C2659   1.402       .  A
C2658      H2669   1.083       .  S
C2659      C2668   1.372       .  A
C2659      C2660   1.385       .  A
C2660      C2661   1.411       .  A
C2660      S2666   1.718       .  A
C2661      C2662   1.411       .  A
C2661      H2670   1.083       .  S
C2662      C2665   1.383       .  A
S2663      C2664   1.725       .  A
C2664      C2665   1.394       .  A
C2665      H2671   1.083       .  S
S2666      C2667   1.729       .  A
C2667      C2668   1.389       .  A
C2668      H2672   1.083       .  S
C2673      C2678   1.386       .  A
C2673      C2674   1.400       .  A
C2673      S2679   1.705       .  A
C2674      C2675   1.401       .  A
C2674      H2685   1.084       .  S
C2675      C2684   1.368       .  A
C2675      C2676   1.385       .  A
C2676      C2677   1.408       .  A
C2676      S2682   1.718       .  A
C2677      C2678   1.409       .  A
C2677      H2686   1.084       .  S
C2678      C2681   1.378       .  A
S2679      C2680   1.724       .  A
C2680      C2681   1.392       .  A
C2681      H2687   1.083       .  S
S2682      C2683   1.728       .  A
C2683      C2684   1.388       .  A
C2684      H2688   1.084       .  S
C2689      C2694   1.387       .  A
C2689      C2690   1.403       .  A
C2689      S2695   1.707       .  A
C2690      C2691   1.403       .  A
C2690      H2701   1.084       .  S
C2691      C2700   1.375       .  A
C2691      C2692   1.387       .  A
C2692      C2693   1.404       .  A
C2692      S2698   1.708       .  A
C2693      C2694   1.404       .  A
C2693      H2702   1.084       .  S
C2694      C2697   1.375       .  A
S2695      C2696   1.725       .  A
C2696      C2697   1.389       .  A
C2697      H2703   1.083       .  S
S2698      C2699   1.726       .  A
C2699      C2700   1.387       .  A
C2700      H2704   1.083       .  S
C2705      C2710   1.386       .  A
C2705      C2706   1.406       .  A
C2705      S2711   1.715       .  A
C2706      C2707   1.408       .  A
C2706      H2717   1.083       .  S
C2707      C2716   1.375       .  A
C2707      C2708   1.387       .  A
C2708      C2709   1.399       .  A
C2708      S2714   1.706       .  A
C2709      C2710   1.401       .  A
C2709      H2718   1.084       .  S
C2710      C2713   1.368       .  A
S2711      C2712   1.726       .  A
C2712      C2713   1.386       .  A
C2713      H2719   1.083       .  S
S2714      C2715   1.722       .  A
C2715      C2716   1.390       .  A
C2716      H2720   1.083       .  S
C2721      C2726   1.386       .  A
C2721      C2722   1.408       .  A
C2721      S2727   1.712       .  A
C2722      C2723   1.408       .  A
C2722      H2733   1.082       .  S
C2723      C2732   1.380   1_655  A
C2723      C2724   1.387   1_655  A
C2724      C2725   1.400   1_455  A
C2724      S2730   1.701       .  A
C2725      C2726   1.400       .  A
C2725      H2734   1.083       .  S
C2726      C2729   1.371       .  A
S2727      C2728   1.728       .  A
C2728      C2729   1.387       .  A
C2729      H2735   1.082       .  S
S2730      C2731   1.725       .  A
C2731      C2732   1.391       .  A
C2732      H2736   1.082       .  S
C2737      C2742   1.387       .  A
C2737      C2738   1.400       .  A
C2737      S2743   1.708       .  A
C2738      C2739   1.402       .  A
C2738      H2749   1.083       .  S
C2739      C2748   1.368       .  A
C2739      C2740   1.386       .  A
C2740      C2741   1.403       .  A
C2740      S2746   1.711       .  A
C2741      C2742   1.405       .  A
C2741      H2750   1.083       .  S
C2742      C2745   1.371       .  A
S2743      C2744   1.722       .  A
C2744      C2745   1.388       .  A
C2745      H2751   1.083       .  S
S2746      C2747   1.724       .  A
C2747      C2748   1.387       .  A
C2748      H2752   1.083       .  S
C2753      C2758   1.386       .  A
C2753      C2754   1.402       .  A
C2753      S2759   1.705       .  A
C2754      C2755   1.402       .  A
C2754      H2765   1.083       .  S
C2755      C2764   1.373       .  A
C2755      C2756   1.386       .  A
C2756      C2757   1.408       .  A
C2756      S2762   1.714       .  A
C2757      C2758   1.408       .  A
C2757      H2766   1.083       .  S
C2758      C2761   1.380       .  A
S2759      C2760   1.725       .  A
C2760      C2761   1.392       .  A
C2761      H2767   1.083       .  S
S2762      C2763   1.728       .  A
C2763      C2764   1.388       .  A
C2764      H2768   1.082       .  S
C2769      C2774   1.386       .  A
C2769      C2770   1.406       .  A
C2769      S2775   1.716       .  A
C2770      C2771   1.408       .  A
C2770      H2781   1.084       .  S
C2771      C2780   1.374       .  A
C2771      C2772   1.387       .  A
C2772      C2773   1.398       .  A
C2772      S2778   1.705       .  A
C2773      C2774   1.399       .  A
C2773      H2782   1.084       .  S
C2774      C2777   1.365       .  A
S2775      C2776   1.726       .  A
C2776      C2777   1.385       .  A
C2777      H2783   1.084       .  S
S2778      C2779   1.721       .  A
C2779      C2780   1.391       .  A
C2780      H2784   1.083       .  S
C2785      C2790   1.386       .  A
C2785      C2786   1.402       .  A
C2785      S2791   1.707       .  A
C2786      C2787   1.403       .  A
C2786      H2797   1.083       .  S
C2787      C2796   1.371       .  A
C2787      C2788   1.386       .  A
C2788      C2789   1.408       .  A
C2788      S2794   1.716       .  A
C2789      C2790   1.409       .  A
C2789      H2798   1.083       .  S
C2790      C2793   1.379       .  A
S2791      C2792   1.726       .  A
C2792      C2793   1.392       .  A
C2793      H2799   1.082       .  S
S2794      C2795   1.727       .  A
C2795      C2796   1.390       .  A
C2796      H2800   1.083       .  S
C2801      C2806   1.387       .  A
C2801      C2802   1.403       .  A
C2801      S2807   1.707       .  A
C2802      C2803   1.403       .  A
C2802      H2813   1.084       .  S
C2803      C2812   1.374       .  A
C2803      C2804   1.386       .  A
C2804      C2805   1.405       .  A
C2804      S2810   1.709       .  A
C2805      C2806   1.405       .  A
C2805      H2814   1.084       .  S
C2806      C2809   1.377       .  A
S2807      C2808   1.724       .  A
C2808      C2809   1.388       .  A
C2809      H2815   1.083       .  S
S2810      C2811   1.726       .  A
C2811      C2812   1.388       .  A
C2812      H2816   1.083       .  S
C2817      C2822   1.387       .  A
C2817      C2818   1.402       .  A
C2817      S2823   1.703       .  A
C2818      C2819   1.401       .  A
C2818      H2829   1.083       .  S
C2819      C2828   1.373       .  A
C2819      C2820   1.387       .  A
C2820      C2821   1.407       .  A
C2820      S2826   1.711       .  A
C2821      C2822   1.406       .  A
C2821      H2830   1.083       .  S
C2822      C2825   1.379       .  A
S2823      C2824   1.725       .  A
C2824      C2825   1.390       .  A
C2825      H2831   1.083       .  S
S2826      C2827   1.726       .  A
C2827      C2828   1.386       .  A
C2828      H2832   1.083       .  S
C2833      C2838   1.386       .  A
C2833      C2834   1.403       .  A
C2833      S2839   1.708       .  A
C2834      C2835   1.403       .  A
C2834      H2845   1.083       .  S
C2835      C2844   1.372       .  A
C2835      C2836   1.385       .  A
C2836      C2837   1.408       .  A
C2836      S2842   1.718       .  A
C2837      C2838   1.409       .  A
C2837      H2846   1.083       .  S
C2838      C2841   1.380       .  A
S2839      C2840   1.726       .  A
C2840      C2841   1.392       .  A
C2841      H2847   1.083       .  S
S2842      C2843   1.727       .  A
C2843      C2844   1.390       .  A
C2844      H2848   1.083       .  S
C2849      C2854   1.386       .  A
C2849      C2850   1.401       .  A
C2849      S2855   1.706       .  A
C2850      C2851   1.402       .  A
C2850      H2861   1.084       .  S
C2851      C2860   1.370       .  A
C2851      C2852   1.386       .  A
C2852      C2853   1.406       .  A
C2852      S2858   1.714       .  A
C2853      C2854   1.407       .  A
C2853      H2862   1.084       .  S
C2854      C2857   1.376       .  A
S2855      C2856   1.724       .  A
C2856      C2857   1.390       .  A
C2857      H2863   1.083       .  S
S2858      C2859   1.727       .  A
C2859      C2860   1.388       .  A
C2860      H2864   1.084       .  S
C2865      C2870   1.386       .  A
C2865      C2866   1.404       .  A
C2865      S2871   1.712       .  A
C2866      C2867   1.405       .  A
C2866      H2877   1.084       .  S
C2867      C2876   1.373       .  A
C2867      C2868   1.386       .  A
C2868      C2869   1.403       .  A
C2868      S2874   1.711       .  A
C2869      C2870   1.404       .  A
C2869      H2878   1.084       .  S
C2870      C2873   1.371       .  A
S2871      C2872   1.724       .  A
C2872      C2873   1.388       .  A
C2873      H2879   1.083       .  S
S2874      C2875   1.724       .  A
C2875      C2876   1.389       .  A
C2876      H2880   1.083       .  S
C2881      C2886   1.386       .  A
C2881      C2882   1.412       .  A
C2881      S2887   1.715       .  A
C2882      C2883   1.411       .  A
C2882      H2893   1.082       .  S
C2883      C2892   1.386       .  A
C2883      C2884   1.386       .  A
C2884      C2885   1.401       .  A
C2884      S2890   1.700       .  A
C2885      C2886   1.400       .  A
C2885      H2894   1.083       .  S
C2886      C2889   1.374       .  A
S2887      C2888   1.731       .  A
C2888      C2889   1.387       .  A
C2889      H2895   1.082       .  S
S2890      C2891   1.726       .  A
C2891      C2892   1.395       .  A
C2892      H2896   1.082       .  S
C2897      C2902   1.386       .  A
C2897      C2898   1.411       .  A
C2897      S2903   1.714       .  A
C2898      C2899   1.409       .  A
C2898      H2909   1.083       .  S
C2899      C2908   1.385       .  A
C2899      C2900   1.387       .  A
C2900      C2901   1.402       .  A
C2900      S2906   1.700   1_655  A
C2901      C2902   1.401       .  A
C2901      H2910   1.083       .  S
C2902      C2905   1.375       .  A
S2903      C2904   1.730       .  A
C2904      C2905   1.388       .  A
C2905      H2911   1.082       .  S
S2906      C2907   1.727       .  A
C2907      C2908   1.393   1_455  A
C2908      H2912   1.083       .  S
C2913      C2918   1.386       .  A
C2913      C2914   1.408       .  A
C2913      S2919   1.716       .  A
C2914      C2915   1.409       .  A
C2914      H2925   1.083       .  S
C2915      C2924   1.378       .  A
C2915      C2916   1.386       .  A
C2916      C2917   1.403       .  A
C2916      S2922   1.710       .  A
C2917      C2918   1.404       .  A
C2917      H2926   1.084       .  S
C2918      C2921   1.373       .  A
S2919      C2920   1.727       .  A
C2920      C2921   1.389       .  A
C2921      H2927   1.083       .  S
S2922      C2923   1.723       .  A
C2923      C2924   1.392       .  A
C2924      H2928   1.083       .  S
C2929      C2934   1.387       .  A
C2929      C2930   1.403       .  A
C2929      S2935   1.707       .  A
C2930      C2931   1.403       .  A
C2930      H2941   1.084       .  S
C2931      C2940   1.375       .  A
C2931      C2932   1.387       .  A
C2932      C2933   1.406       .  A
C2932      S2938   1.709       .  A
C2933      C2934   1.406       .  A
C2933      H2942   1.084       .  S
C2934      C2937   1.377       .  A
S2935      C2936   1.723       .  A
C2936      C2937   1.389       .  A
C2937      H2943   1.083       .  S
S2938      C2939   1.727       .  A
C2939      C2940   1.387       .  A
C2940      H2944   1.083       .  S
C2945      C2950   1.386       .  A
C2945      C2946   1.411       .  A
C2945      S2951   1.715       .  A
C2946      C2947   1.410       .  A
C2946      H2957   1.083       .  S
C2947      C2956   1.384       .  A
C2947      C2948   1.387       .  A
C2948      C2949   1.399       .  A
C2948      S2954   1.697       .  A
C2949      C2950   1.398       .  A
C2949      H2958   1.083       .  S
C2950      C2953   1.371       .  A
S2951      C2952   1.729       .  A
C2952      C2953   1.386       .  A
C2953      H2959   1.082       .  S
S2954      C2955   1.725       .  A
C2955      C2956   1.393       .  A
C2956      H2960   1.082       .  S
C2961      C2966   1.387       .  A
C2961      C2962   1.401       .  A
C2961      S2967   1.704       .  A
C2962      C2963   1.401       .  A
C2962      H2973   1.084       .  S
C2963      C2972   1.372       .  A
C2963      C2964   1.387       .  A
C2964      C2965   1.404       .  A
C2964      S2970   1.708       .  A
C2965      C2966   1.404       .  A
C2965      H2974   1.084       .  S
C2966      C2969   1.375       .  A
S2967      C2968   1.725       .  A
C2968      C2969   1.388       .  A
C2969      H2975   1.083       .  S
S2970      C2971   1.724       .  A
C2971      C2972   1.386       .  A
C2972      H2976   1.084       .  S
C2977      C2982   1.387       .  A
C2977      C2978   1.402       .  A
C2977      S2983   1.700       .  A
C2978      C2979   1.401       .  A
C2978      H2989   1.083       .  S
C2979      C2988   1.373       .  A
C2979      C2980   1.386       .  A
C2980      C2981   1.409       .  A
C2980      S2986   1.712       .  A
C2981      C2982   1.408       .  A
C2981      H2990   1.083       .  S
C2982      C2985   1.383       .  A
S2983      C2984   1.728       .  A
C2984      C2985   1.391       .  A
C2985      H2991   1.083       .  S
S2986      C2987   1.728       .  A
C2987      C2988   1.388       .  A
C2988      H2992   1.082       .  S
C2993      C2998   1.386       .  A
C2993      C2994   1.404       .  A
C2993      S2999   1.710       .  A
C2994      C2995   1.405       .  A
C2994      H3005   1.084       .  S
C2995      C3004   1.374       .  A
C2995      C2996   1.387       .  A
C2996      C2997   1.401       .  A
C2996      S3002   1.705       .  A
C2997      C2998   1.401       .  A
C2997      H3006   1.084       .  S
C2998      C3001   1.370       .  A
S2999      C3000   1.725       .  A
C3000      C3001   1.386       .  A
C3001      H3007   1.083       .  S
S3002      C3003   1.722       .  A
C3003      C3004   1.387       .  A
C3004      H3008   1.083       .  S
C3009      C3014   1.387       .  A
C3009      C3010   1.403       .  A
C3009      S3015   1.707       .  A
C3010      C3011   1.403       .  A
C3010      H3021   1.083       .  S
C3011      C3020   1.374       .  A
C3011      C3012   1.387       .  A
C3012      C3013   1.402       .  A
C3012      S3018   1.704       .  A
C3013      C3014   1.402       .  A
C3013      H3022   1.084       .  S
C3014      C3017   1.373       .  A
S3015      C3016   1.724       .  A
C3016      C3017   1.386       .  A
C3017      H3023   1.083       .  S
S3018      C3019   1.725       .  A
C3019      C3020   1.387       .  A
C3020      H3024   1.083       .  S
