geometry optimzed in LAMMPS
_audit_creation_date              2020-11-30 
_audit_creation_method            'lammps2cif' 
_symmetry_space_group_name_H-M    'P1' 
_symmetry_Int_Tables_number       1 
_symmetry_cell_setting            triclinic 
loop_ 
_symmetry_equiv_pos_as_xyz 
  x,y,z 
_cell_length_a                    51.71392812 
_cell_length_b                    52.00430242457048 
_cell_length_c                    51.87414457809378 
_cell_angle_alpha                 90.67341615972182 
_cell_angle_beta                  89.76982760945393 
_cell_angle_gamma                 89.80273098314335 
loop_ 
_atom_site_label 
_atom_site_type_symbol 
_atom_site_fract_x 
_atom_site_fract_y 
_atom_site_fract_z 
_atom_site_charge 
Zr1        Zr  0.76549038  0.55762907  0.85865839     2.17500
O2          O  0.74878451  0.58371790  0.89475331    -0.52500
O3          O  0.76389657  0.60386142  0.85170749    -0.75700
O4          O  0.80495380  0.56958462  0.88255804    -0.82400
O5          O  0.70869290  0.51121336  0.86203667    -0.84200
O6          O  0.83795855  0.56440689  0.85406152    -0.79800
O7          O  0.73481179  0.53655137  0.88689959    -0.91400
O8          O  0.78050658  0.60923731  0.81188028    -0.77400
O9          O  0.79311431  0.56879802  0.82407587    -0.86900
O10         O  0.73696961  0.56235043  0.82260490    -0.86600
O11         O  0.79671855  0.52332543  0.85628770    -0.73300
O12         O  0.74925655  0.51840079  0.84571897    -0.85500
Zr13       Zr  0.78019056  0.49736414  0.77490568     2.26400
Zr14       Zr  0.82368754  0.53483781  0.82074415     2.06300
Zr15       Zr  0.71893861  0.52022139  0.81391563     2.10000
Zr16       Zr  0.76564351  0.57229142  0.78771316     1.78800
O17         O  0.68558019  0.48737346  0.80900193    -0.94300
O18         O  0.76519937  0.61348443  0.76545152    -0.42100
O19         O  0.74891477  0.53075663  0.78133354    -0.78700
O20         O  0.79846693  0.53959023  0.78261680    -0.97400
O21         O  0.80546290  0.49332383  0.81324656    -0.90700
O22         O  0.74980458  0.48579962  0.80849118    -0.93600
C23         C  0.77563288  0.61730338  0.83473632     1.00200
C24         C  0.71687723  0.51970474  0.88462897     1.13100
C25         C  0.82855428  0.57322606  0.87532092     1.03900
O26         O  0.85352287  0.56531997  0.80152580    -0.95700
O27         O  0.85013486  0.51911824  0.78593322    -0.91500
O28         O  0.82299285  0.50381552  0.75514216    -0.84600
C29         C  0.84527560  0.51166710  0.76287223     1.10500
O30         O  0.76981383  0.48143377  0.89349920    -0.97700
Zr31       Zr  0.77553575  0.48283899  0.84706433     1.88900
O32         O  0.77769945  0.45117888  0.78334714    -0.74300
O33         O  0.85697341  0.51053427  0.84293564    -0.53600
O34         O  0.81435312  0.46803647  0.86948991    -0.98300
O35         O  0.74010382  0.45691576  0.86327584    -0.55500
O36         O  0.77747874  0.44160501  0.82427415    -0.74900
C37         C  0.78918042  0.44144351  0.80268959     0.97500
O38         O  0.78666119  0.47407176  0.73412910    -0.63700
O39         O  0.68222302  0.54969495  0.81794259    -0.58500
O40         O  0.74751589  0.50674112  0.74258460    -0.95200
O41         O  0.71178960  0.52226051  0.76352445    -0.93600
O42         O  0.71990835  0.57788755  0.77769690    -0.93900
O43         O  0.78081161  0.57014801  0.74300777    -0.92700
C44         C  0.72473923  0.51651988  0.74204875     1.16300
H45         H  0.72417554  0.57552005  0.82602517     0.32300
H46         H  0.80968990  0.54536542  0.76895992     0.43100
H47         H  0.74047872  0.47018106  0.80472793     0.36700
H48         H  0.80658318  0.52197681  0.87193663     0.33100
H49         H  0.78316310  0.61640672  0.75948862     0.24900
H50         H  0.87330391  0.51941444  0.83861015     0.30900
H51         H  0.80885132  0.45319639  0.87996468     0.36800
H52         H  0.71733528  0.59660859  0.77561015     0.31200
H53         H  0.67397194  0.54954778  0.80074721     0.30100
H54         H  0.66913786  0.49701625  0.80728666     0.31800
H55         H  0.74696056  0.43916459  0.86438848     0.30800
H56         H  0.77659208  0.55255554  0.73689731     0.34800
H57         H  0.77029308  0.46487991  0.73060134     0.27500
H58         H  0.72968238  0.58373209  0.89340125     0.31700
H59         H  0.77211972  0.49945454  0.89936925     0.34600
H60         H  0.66975771  0.54081606  0.82928325     0.27200
H61         H  0.78778255  0.48736970  0.72065021     0.40000
H62         H  0.84239053  0.57976575  0.79601685     0.30100
H63         H  0.75501598  0.61086324  0.74951239     0.37700
H64         H  0.72742205  0.45626658  0.84904773     0.29600
H65         H  0.85420275  0.51430605  0.86148822     0.29600
H66         H  0.75282649  0.57439745  0.91079137     0.29900
Zr67       Zr  0.75026078  0.44110414  0.53590254     2.17500
O68         O  0.74076298  0.42786257  0.49149000    -0.52500
O69         O  0.70580536  0.42594002  0.53755990    -0.75700
O70         O  0.77075821  0.39999996  0.52984789    -0.82400
O71         O  0.74294423  0.50791966  0.51307266    -0.84200
O72         O  0.77343764  0.38280071  0.56875273    -0.79800
O73         O  0.75144475  0.46731519  0.49841558    -0.91400
O74         O  0.69080703  0.42662091  0.57865014    -0.77400
O75         O  0.75116575  0.42035207  0.57649609    -0.86900
O76         O  0.72276767  0.46704060  0.56280641    -0.86600
O77         O  0.79549563  0.43980906  0.54747875    -0.73300
O78         O  0.76905100  0.48260381  0.53831941    -0.85500
Zr79       Zr  0.78822173  0.48829061  0.61744602     2.26400
Zr80       Zr  0.79577016  0.41979228  0.58918862     2.06300
Zr81       Zr  0.74164715  0.50902132  0.56394248     2.10000
Zr82       Zr  0.72496149  0.44580050  0.60389118     1.78800
O83         O  0.75069972  0.55475593  0.56053328    -0.94300
O84         O  0.71972719  0.40344580  0.62284063    -0.42100
O85         O  0.74443053  0.48674367  0.60356517    -0.78700
O86         O  0.76956444  0.44562979  0.61799031    -0.97400
O87         O  0.81466478  0.46197551  0.59043814    -0.90700
O88         O  0.78633382  0.50971193  0.57688199    -0.93600
C89         C  0.68814058  0.42210066  0.55451368     1.00200
C90         C  0.74749351  0.49107727  0.49416696     1.13100
C91         C  0.76660902  0.38145508  0.54498111     1.03900
O92         O  0.79889183  0.38028947  0.61372788    -0.95700
O93         O  0.82295778  0.42426912  0.62812097    -0.91500
O94         O  0.82004605  0.46568181  0.64224856    -0.84600
C95         C  0.82935033  0.44291653  0.64350035     1.10500
O96         O  0.82799406  0.47334741  0.50624090    -0.97700
Zr97       Zr  0.81328859  0.48265717  0.55006586     1.88900
O98         O  0.82533610  0.51681917  0.61321630    -0.74300
O99         O  0.83454233  0.40383080  0.56739775    -0.53600
O100        O  0.85527242  0.46145476  0.55285150    -0.98300
O101        O  0.81635603  0.51802226  0.51980252    -0.55500
O102        O  0.84034937  0.51361932  0.57207202    -0.74900
C103        C  0.84110253  0.52278131  0.59504464     0.97500
O104        O  0.78227456  0.49510379  0.66374748    -0.63700
O105        O  0.69835476  0.52456797  0.55368860    -0.58500
O106        O  0.76395680  0.52471315  0.63457248    -0.95200
O107        O  0.72754654  0.52091630  0.61110262    -0.93600
O108        O  0.68637555  0.47060744  0.61490708    -0.93900
O109        O  0.71619914  0.44597018  0.65009010    -0.92700
C110        C  0.73935617  0.52635007  0.63301115     1.16300
H111        H  0.70537261  0.46882091  0.55644763     0.32300
H112        H  0.77064973  0.43871397  0.63517236     0.43100
H113        H  0.79221560  0.52729118  0.57783154     0.36700
H114        H  0.80563169  0.43006313  0.53508177     0.33100
H115        H  0.71713084  0.39156057  0.60804146     0.24900
H116        H  0.84899095  0.41187258  0.57697250     0.30900
H117        H  0.85527144  0.44803579  0.53915358     0.36800
H118        H  0.67903757  0.47575579  0.59813046     0.31200
H119        H  0.70018285  0.53254105  0.53654114     0.30100
H120        H  0.75408709  0.55733806  0.54194479     0.31800
H121        H  0.83455874  0.52379911  0.52075704     0.30800
H122        H  0.73235975  0.45205660  0.65826566     0.34800
H123        H  0.77957394  0.47777076  0.67096724     0.27500
H124        H  0.72335280  0.42005848  0.49148281     0.31700
H125        H  0.81198320  0.46942620  0.49659945     0.34600
H126        H  0.68777150  0.50906139  0.55046001     0.27200
H127        H  0.79924761  0.50077651  0.67047186     0.40000
H128        H  0.78889875  0.38379668  0.62971038     0.30100
H129        H  0.73708973  0.39898711  0.62946624     0.37700
H130        H  0.80630527  0.53217040  0.52799561     0.29600
H131        H  0.83545956  0.38542024  0.57198004     0.29600
H132        H  0.75277547  0.41361017  0.48705447     0.29900
Zr133      Zr  0.68981534  0.53857099  0.11182058     2.17500
O134        O  0.66945515  0.52334925  0.15134924    -0.52500
O135        O  0.64294248  0.53334200  0.10598111    -0.75700
O136        O  0.68315381  0.57668538  0.13805352    -0.82400
O137        O  0.72943341  0.47772366  0.11033720    -0.84200
O138        O  0.68621398  0.61131379  0.11220404    -0.79800
O139        O  0.70987857  0.50566523  0.13849272    -0.91400
O140        O  0.63255448  0.53776301  0.06387961    -0.77400
O141        O  0.67943400  0.57107347  0.08174229    -0.86900
O142        O  0.68105337  0.51426644  0.07324423    -0.86600
O143        O  0.72752343  0.56611277  0.11003716    -0.73300
O144        O  0.72842830  0.51767158  0.09851552    -0.85500
Zr145      Zr  0.74621857  0.54947266  0.02836210     2.26400
Zr146      Zr  0.71712256  0.59754292  0.07823404     2.06300
Zr147      Zr  0.72041607  0.49155403  0.06237530     2.10000
Zr148      Zr  0.67217407  0.54807653  0.04279554     1.78800
O149        O  0.75280512  0.45887919  0.05135850    -0.94300
O150        O  0.64992089  0.58962800  0.04705205    -0.42100
O151        O  0.70995985  0.52544868  0.03602765    -0.78700
O152        O  0.70883080  0.57543032  0.03790085    -0.97400
O153        O  0.75510709  0.57378269  0.06628848    -0.90700
O154        O  0.75834572  0.51748449  0.05862004    -0.93600
C155        C  0.62668880  0.53344031  0.08727659     1.00200
C156        C  0.72393958  0.48564653  0.13414776     1.13100
C157        C  0.67800330  0.60014053  0.13273277     1.03900
O158        O  0.69450874  0.63352020  0.05868785    -0.95700
O159        O  0.74587656  0.62105189  0.04934476    -0.91500
O160        O  0.76446548  0.59155610  0.02238845    -0.84600
C161        C  0.76154089  0.61454781  0.03100758     1.10500
O162        O  0.77363088  0.54256793  0.14317103    -0.97700
Zr163      Zr  0.76631370  0.54293846  0.09681279     1.88900
O164        O  0.79216376  0.54230415  0.02795216    -0.74300
O165        O  0.74190671  0.62513118  0.10732428    -0.53600
O166        O  0.78964628  0.58222039  0.10745221    -0.98300
O167        O  0.79122867  0.50611676  0.11163208    -0.55500
O168        O  0.80455885  0.54515583  0.06971960    -0.74900
C169        C  0.80942105  0.54421574  0.04545366     0.97500
O170        O  0.74598112  0.56115988  0.98287428    -0.63700
O171        O  0.69403570  0.45273914  0.06445382    -0.58500
O172        O  0.74411770  0.51653073  0.99548283    -0.95200
O173        O  0.71430645  0.49007657  0.01282430    -0.93600
O174        O  0.64765884  0.52093414  0.01335233    -0.93900
O175        O  0.66274549  0.56043025  0.99860509    -0.92700
C176        C  0.72549548  0.50070363  0.99280869     1.16300
H177        H  0.66701182  0.50224457  0.07515573     0.32300
H178        H  0.70608560  0.58769971  0.02434813     0.43100
H179        H  0.77293363  0.50701236  0.05334884     0.36700
H180        H  0.73052922  0.57446618  0.12649423     0.33100
H181        H  0.66037523  0.60189382  0.03700540     0.24900
H182        H  0.75366464  0.63505155  0.09613208     0.30900
H183        H  0.80557110  0.57635743  0.11616847     0.36800
H184        H  0.65152229  0.50320800  0.01895282     0.31200
H185        H  0.69102993  0.44994547  0.08308159     0.30100
H186        H  0.75484945  0.44868442  0.06724056     0.31800
H187        H  0.80762515  0.51346468  0.11814974     0.30800
H188        H  0.66948213  0.57810784  0.99677097     0.34800
H189        H  0.73797986  0.57846345  0.98220342     0.27500
H190        H  0.65989112  0.50762202  0.14625144     0.31700
H191        H  0.76881074  0.55996675  0.14949815     0.34600
H192        H  0.67693979  0.45781067  0.05764356     0.27200
H193        H  0.76436353  0.56389359  0.97821376     0.40000
H194        H  0.68964106  0.64500073  0.07328128     0.30100
H195        H  0.63374282  0.58773281  0.03705736     0.37700
H196        H  0.79630247  0.49671904  0.09568261     0.29600
H197        H  0.72936433  0.63806047  0.11393558     0.29600
H198        H  0.65572109  0.53602113  0.15554526     0.29900
Zr199      Zr  0.69401294  0.49945516  0.27571772     2.17500
O200        O  0.67758592  0.49822331  0.23170857    -0.52500
O201        O  0.70673527  0.54376511  0.27682163    -0.75700
O202        O  0.65436601  0.52133634  0.26637963    -0.82400
O203        O  0.75206004  0.46578666  0.26249957    -0.84200
O204        O  0.62343624  0.50149179  0.29009995    -0.79800
O205        O  0.72933560  0.49865056  0.24562400    -0.91400
O206        O  0.69930095  0.55482111  0.31848008    -0.77400
O207        O  0.66848465  0.50941706  0.31266745    -0.86900
O208        O  0.72548862  0.50771759  0.30830228    -0.86600
O209        O  0.66709234  0.46251549  0.28247147    -0.73300
O210        O  0.71753228  0.46022266  0.28008517    -0.85500
Zr211      Zr  0.69593836  0.44180428  0.35848006     2.26400
Zr212      Zr  0.64260771  0.47221583  0.32063816     2.06300
Zr213      Zr  0.74805767  0.46784033  0.31336348     2.10000
Zr214      Zr  0.69908240  0.51701235  0.34531693     1.78800
O215        O  0.77856415  0.43207284  0.31711207    -0.94300
O216        O  0.66299494  0.54369989  0.36138565    -0.42100
O217        O  0.71826705  0.47719427  0.34488367    -0.78700
O218        O  0.67135649  0.48125747  0.35602163    -0.97400
O219        O  0.66631559  0.43303089  0.32480821    -0.90700
O220        O  0.72224359  0.43022316  0.32205774    -0.93600
C221        C  0.70332770  0.56042050  0.29479868     1.00200
C222        C  0.74421533  0.47934174  0.24249278     1.13100
C223        C  0.63083564  0.51741216  0.27279488     1.03900
O224        O  0.60981660  0.49456253  0.34622842    -0.95700
O225        O  0.62535137  0.44006640  0.34968935    -0.91500
O226        O  0.65499672  0.44001351  0.38115057    -0.84600
C227        C  0.63357737  0.43244707  0.37159403     1.10500
O228        O  0.68780257  0.41704861  0.24133793    -0.97700
Zr229      Zr  0.69163487  0.42358920  0.28771605     1.88900
O230        O  0.69200763  0.39528281  0.35304375    -0.74300
O231        O  0.60909310  0.44909770  0.29708969    -0.53600
O232        O  0.65244332  0.40306876  0.27173538    -0.98300
O233        O  0.72817601  0.39944247  0.26978633    -0.55500
O234        O  0.68798980  0.38413657  0.31092118    -0.74900
C235        C  0.68874417  0.37870860  0.33482483     0.97500
O236        O  0.70282238  0.42498688  0.40181872    -0.63700
O237        O  0.78862973  0.49113518  0.30791579    -0.58500
O238        O  0.73381413  0.44917953  0.38463443    -0.95200
O239        O  0.75548587  0.47904362  0.36196740    -0.93600
O240        O  0.73852808  0.53674261  0.36133429    -0.93900
O241        O  0.70581624  0.52996190  0.39004856    -0.92700
C242        C  0.74798582  0.46922071  0.38409576     1.16300
H243        H  0.73757408  0.52117562  0.30426309     0.32300
H244        H  0.66189975  0.48520152  0.37165508     0.43100
H245        H  0.73252743  0.41512308  0.32543843     0.36700
H246        H  0.65545767  0.46051281  0.26807073     0.33100
H247        H  0.65245772  0.54787077  0.34608475     0.24900
H248        H  0.61288669  0.43066068  0.29986433     0.30900
H249        H  0.65733408  0.38490698  0.26834931     0.36800
H250        H  0.75188811  0.53240738  0.34827420     0.31200
H251        H  0.79182312  0.49114622  0.28907585     0.30100
H252        H  0.79536092  0.43881055  0.31100112     0.31800
H253        H  0.72326639  0.38114631  0.27143150     0.30800
H254        H  0.68989504  0.52501288  0.39937722     0.34800
H255        H  0.69211860  0.43577349  0.41359094     0.27500
H256        H  0.68735954  0.51139992  0.22214563     0.31700
H257        H  0.67577015  0.43067172  0.23559456     0.34600
H258        H  0.78436421  0.50923976  0.31228751     0.27200
H259        H  0.69445648  0.40788563  0.40200362     0.40000
H260        H  0.61057072  0.51260918  0.34040981     0.30100
H261        H  0.65190991  0.53210526  0.37159169     0.37700
H262        H  0.74248701  0.40181770  0.28218215     0.29600
H263        H  0.59298520  0.45242289  0.30697698     0.29600
H264        H  0.68335145  0.48153530  0.22435638     0.29900
Zr265      Zr  0.15209504  0.70549596  0.55914199     2.17500
O266        O  0.19393803  0.68500956  0.54988630    -0.52500
O267        O  0.14046285  0.66035559  0.55252587    -0.75700
O268        O  0.16952609  0.68955410  0.59912846    -0.82400
O269        O  0.16551863  0.75582491  0.51348798    -0.84200
O270        O  0.13336454  0.68652431  0.62267527    -0.79800
O271        O  0.18126239  0.71735814  0.52471165    -0.91400
O272        O  0.09706098  0.65484768  0.55454048    -0.77400
O273        O  0.11497448  0.69548131  0.58423302    -0.86900
O274        O  0.11713964  0.70522241  0.52894826    -0.86600
O275        O  0.15221016  0.73883227  0.59209654    -0.73300
O276        O  0.14411148  0.74696764  0.54640911    -0.85500
Zr277      Zr  0.07562965  0.77174529  0.57063463     2.26400
Zr278      Zr  0.11397112  0.72862960  0.61656556     2.06300
Zr279      Zr  0.11583248  0.74858998  0.51265055     2.10000
Zr280      Zr  0.07965640  0.69728747  0.55545531     1.78800
O281        O  0.11729629  0.78054161  0.47852589    -0.94300
O282        O  0.05278835  0.67424976  0.58614688    -0.42100
O283        O  0.07968851  0.73906181  0.53864736    -0.78700
O284        O  0.07677783  0.72939888  0.58894629    -0.97400
O285        O  0.11079824  0.77145303  0.60047357    -0.90700
O286        O  0.11213594  0.78261388  0.54378520    -0.93600
C287        C  0.12010660  0.64627594  0.55292349     1.00200
C288        C  0.18519631  0.74079042  0.51886412     1.13100
C289        C  0.15536771  0.67769043  0.61529072     1.03900
O290        O  0.09437897  0.70797644  0.65370716    -0.95700
O291        O  0.07979632  0.75007712  0.64085766    -0.91500
O292        O  0.05532030  0.77244742  0.61267327    -0.84600
C293        C  0.06017129  0.76410286  0.63523905     1.10500
O294        O  0.19344149  0.78785104  0.56721688    -0.97700
Zr295      Zr  0.14731346  0.78155442  0.57443264     1.88900
O296        O  0.09175664  0.81485999  0.56893657    -0.74300
O297        O  0.14443856  0.74193487  0.64984214    -0.53600
O298        O  0.17317889  0.79090067  0.61298314    -0.98300
O299        O  0.15522648  0.81650312  0.54433280    -0.55500
O300        O  0.12390297  0.81581435  0.59657730    -0.74900
C301        C  0.10184489  0.82377628  0.58924808     0.97500
O302        O  0.03623592  0.79786500  0.57169559    -0.63700
O303        O  0.12317611  0.72096600  0.47483168    -0.58500
O304        O  0.04352241  0.76655991  0.53756055    -0.95200
O305        O  0.06612215  0.75480174  0.50150576    -0.93600
O306        O  0.06586257  0.68135725  0.51337351    -0.93900
O307        O  0.03300427  0.70057465  0.55104272    -0.92700
C308        C  0.04410615  0.76061698  0.51360597     1.16300
H309        H  0.11947532  0.69231676  0.51561588     0.32300
H310        H  0.06124013  0.72599955  0.59872443     0.43100
H311        H  0.11109765  0.79818370  0.53377975     0.36700
H312        H  0.16769789  0.73802871  0.60236023     0.33100
H313        H  0.05150863  0.65650549  0.57916156     0.24900
H314        H  0.15982703  0.73080134  0.64729173     0.30900
H315        H  0.16592351  0.80683817  0.62079909     0.36800
H316        H  0.06930626  0.69571623  0.50148199     0.31200
H317        H  0.12343157  0.73265380  0.45990268     0.30100
H318        H  0.13565173  0.78096282  0.47304286     0.31800
H319        H  0.16737305  0.80943835  0.53123441     0.30800
H320        H  0.02835388  0.71674262  0.56024436     0.34800
H321        H  0.03582335  0.80702445  0.58849762     0.27500
H322        H  0.20555778  0.69004812  0.56418616     0.31700
H323        H  0.19781689  0.80526418  0.57374453     0.34600
H324        H  0.14133914  0.71514681  0.47648956     0.27200
H325        H  0.03919317  0.81164447  0.55900720     0.40000
H326        H  0.08588438  0.69242967  0.64656778     0.30100
H327        H  0.06363757  0.67270000  0.60173758     0.37700
H328        H  0.16517887  0.82969000  0.55394598     0.29600
H329        H  0.15013664  0.75932582  0.64486799     0.29600
H330        H  0.19118596  0.66635375  0.55232101     0.29900
Zr331      Zr  0.90134076  0.82821011  0.54026176     2.17500
O332        O  0.94715740  0.82938867  0.55125931    -0.52500
O333        O  0.90206055  0.81826474  0.58641048    -0.75700
O334        O  0.91317109  0.87309192  0.54301256    -0.82400
O335        O  0.91194733  0.76209997  0.51014100    -0.84200
O336        O  0.87679266  0.89379519  0.55253070    -0.79800
O337        O  0.93299635  0.79815817  0.52349096    -0.91400
O338        O  0.86093575  0.81572112  0.60143424    -0.77400
O339        O  0.86441663  0.85304915  0.55230697    -0.86900
O340        O  0.87002269  0.79681645  0.55254621    -0.86600
O341        O  0.89019869  0.85305363  0.50244280    -0.73300
O342        O  0.89237343  0.80239514  0.50326110    -0.85500
Zr343      Zr  0.81331003  0.82006246  0.49132718     2.26400
Zr344      Zr  0.85236122  0.87737449  0.51516605     2.06300
Zr345      Zr  0.86227070  0.77046711  0.51507374     2.10000
Zr346      Zr  0.83335843  0.82320289  0.56525187     1.78800
O347        O  0.85775917  0.73808696  0.48112898    -0.94300
O348        O  0.82947433  0.85868708  0.59631925    -0.42100
O349        O  0.82701111  0.79728289  0.52822432    -0.78700
O350        O  0.81956054  0.84766571  0.52838459    -0.97400
O351        O  0.84463887  0.85055917  0.47828016    -0.90700
O352        O  0.84932219  0.79426596  0.47788967    -0.93600
C353        C  0.88534689  0.81310923  0.60407312     1.00200
C354        C  0.93335472  0.77545447  0.51365110     1.13100
C355        C  0.90040648  0.88817951  0.55779063     1.03900
O356        O  0.83205504  0.91743427  0.52943244    -0.95700
O357        O  0.81256118  0.89201000  0.49357959    -0.91500
O358        O  0.79330022  0.85759190  0.47459521    -0.84600
C359        C  0.79490550  0.88160707  0.47939323     1.10500
O360        O  0.92729966  0.82701829  0.45756695    -0.97700
Zr361      Zr  0.88092359  0.82536586  0.46584155     1.88900
O362        O  0.81102732  0.81376838  0.44550789    -0.74300
O363        O  0.87791860  0.90567192  0.48809532    -0.53600
O364        O  0.89266141  0.86193457  0.43939862    -0.98300
O365        O  0.89811720  0.78873299  0.44140883    -0.55500
O366        O  0.85105498  0.82225777  0.42978074    -0.74900
C367        C  0.82688752  0.81732480  0.42692045     0.97500
O368        O  0.76693183  0.82233391  0.50012450    -0.63700
O369        O  0.86976293  0.73377242  0.54278862    -0.58500
O370        O  0.79259083  0.77859185  0.49169757    -0.95200
O371        O  0.81414577  0.76052870  0.52430968    -0.93600
O372        O  0.81369931  0.78471679  0.58286901    -0.93900
O373        O  0.78859783  0.82954091  0.57902619    -0.92700
C374        C  0.79242990  0.76549899  0.51228836     1.16300
H375        H  0.87569451  0.78502065  0.56559985     0.32300
H376        H  0.80380217  0.85692376  0.53233304     0.43100
H377        H  0.84485780  0.78279327  0.46385795     0.36700
H378        H  0.90415636  0.86434745  0.49767526     0.33100
H379        H  0.84724589  0.86529145  0.59876663     0.24900
H380        H  0.86675289  0.90893096  0.47300661     0.30900
H381        H  0.89718909  0.85431770  0.42237750     0.36800
H382        H  0.82847301  0.77434164  0.58904906     0.31200
H383        H  0.85228139  0.72844169  0.54839006     0.30100
H384        H  0.87575468  0.73310137  0.47674074     0.31800
H385        H  0.88310503  0.77745711  0.43801873     0.30800
H386        H  0.78288244  0.84586633  0.57121720     0.34800
H387        H  0.76367124  0.83917525  0.50866682     0.27500
H388        H  0.94789883  0.83451418  0.56966763     0.31700
H389        H  0.93470111  0.83504407  0.47327157     0.34600
H390        H  0.87558148  0.71988236  0.53087898     0.27200
H391        H  0.75834634  0.82336972  0.48314561     0.40000
H392        H  0.81917209  0.91217698  0.54251399     0.30100
H393        H  0.82046302  0.87252531  0.58692744     0.37700
H394        H  0.90868032  0.77907610  0.45392905     0.29600
H395        H  0.87822333  0.92226419  0.49763799     0.29600
H396        H  0.95451847  0.84405376  0.54173478     0.29900
Zr397      Zr  0.64813327  0.81854468  0.48668591     2.17500
O398        O  0.68065388  0.84845233  0.50331128    -0.52500
O399        O  0.63406809  0.86387366  0.48347082    -0.75700
O400        O  0.66979336  0.83143260  0.44746685    -0.82400
O401        O  0.66299270  0.76831136  0.53730711    -0.84200
O402        O  0.63724184  0.82988450  0.41843490    -0.79800
O403        O  0.68206749  0.79967700  0.51354683    -0.91400
O404        O  0.59059624  0.86437378  0.47870662    -0.77400
O405        O  0.60944279  0.82641708  0.46455840    -0.86900
O406        O  0.61445515  0.81620838  0.51880155    -0.86600
O407        O  0.64646296  0.78613320  0.45257175    -0.73300
O408        O  0.64470257  0.77542243  0.50056812    -0.85500
Zr409      Zr  0.57060934  0.75068624  0.47411311     2.26400
Zr410      Zr  0.60745527  0.79659948  0.43039005     2.06300
Zr411      Zr  0.61323715  0.77178504  0.53291698     2.10000
Zr412      Zr  0.57548924  0.82452017  0.49490678     1.78800
O413        O  0.61473481  0.73348908  0.55941388    -0.94300
O414        O  0.56822784  0.83933818  0.53909352    -0.42100
O415        O  0.57692856  0.78155698  0.50765035    -0.78700
O416        O  0.57084875  0.79514348  0.45922952    -0.97400
O417        O  0.60659170  0.75369690  0.44511109    -0.90700
O418        O  0.60854347  0.73981051  0.49892051    -0.93600
C419        C  0.61262370  0.87512784  0.47763918     1.00200
C420        C  0.68360901  0.78055986  0.52901557     1.13100
C421        C  0.65941818  0.83770549  0.42602731     1.03900
O422        O  0.57975318  0.82585355  0.40651109    -0.95700
O423        O  0.58045961  0.76456918  0.41084596    -0.91500
O424        O  0.54579121  0.75951697  0.43532801    -0.84600
C425        C  0.55606270  0.76540608  0.41376479     1.10500
O426        O  0.69098592  0.74908309  0.46964585    -0.97700
Zr427      Zr  0.64431390  0.74265982  0.46885376     1.88900
O428        O  0.58732029  0.70753161  0.46467834    -0.74300
O429        O  0.63007029  0.78691554  0.39016395    -0.53600
O430        O  0.66737611  0.72944319  0.42984972    -0.98300
O431        O  0.65819060  0.71159548  0.50083853    -0.55500
O432        O  0.62739526  0.70300425  0.45134671    -0.74900
C433        C  0.60334312  0.70231357  0.44651263     0.97500
O434        O  0.53175511  0.72415037  0.47665945    -0.63700
O435        O  0.61783561  0.79571109  0.57326977    -0.58500
O436        O  0.54246453  0.75094006  0.51193619    -0.95200
O437        O  0.56493177  0.76808809  0.54574396    -0.93600
O438        O  0.53058827  0.81000380  0.49546865    -0.93900
O439        O  0.54781413  0.86049042  0.48280383    -0.92700
C440        C  0.54340307  0.75958817  0.53521493     1.16300
H441        H  0.61732733  0.82836395  0.53270751     0.32300
H442        H  0.55535537  0.80060938  0.45061013     0.43100
H443        H  0.60721083  0.72283207  0.50627284     0.36700
H444        H  0.66113277  0.78677150  0.44096369     0.33100
H445        H  0.54938121  0.84260291  0.54012197     0.24900
H446        H  0.63260398  0.76804436  0.39022921     0.30900
H447        H  0.66577652  0.74419477  0.41807357     0.36800
H448        H  0.51941299  0.82445347  0.49017607     0.31200
H449        H  0.60557309  0.78748216  0.58530378     0.30100
H450        H  0.61407405  0.74003859  0.57739791     0.31800
H451        H  0.66302287  0.72195359  0.51616015     0.30800
H452        H  0.54152409  0.86803207  0.49929591     0.34800
H453        H  0.52100333  0.72830982  0.46153033     0.27500
H454        H  0.68068581  0.84683016  0.52231175     0.31700
H455        H  0.69894590  0.73189990  0.46704718     0.34600
H456        H  0.63516030  0.79083618  0.57968229     0.27200
H457        H  0.53759530  0.70623801  0.47355088     0.40000
H458        H  0.58937688  0.84226290  0.40588318     0.30100
H459        H  0.57087812  0.82388607  0.54975559     0.37700
H460        H  0.67466344  0.70428574  0.49423739     0.29600
H461        H  0.61720180  0.78992911  0.37646185     0.29600
H462        H  0.69772076  0.84193547  0.49737001     0.29900
Zr463      Zr  0.32237685  0.69610544  0.52183632     2.17500
O464        O  0.27805095  0.69383276  0.50619013    -0.52500
O465        O  0.31894444  0.67322718  0.56129108    -0.75700
O466        O  0.31090300  0.65235484  0.51291111    -0.82400
O467        O  0.31464177  0.76309632  0.53804397    -0.84200
O468        O  0.33726991  0.63794619  0.48064525    -0.79800
O469        O  0.29654892  0.72501460  0.54749352    -0.91400
O470        O  0.35951446  0.66023977  0.57178101    -0.77400
O471        O  0.35765167  0.66816165  0.51419174    -0.86900
O472        O  0.35455073  0.71106406  0.55139762    -0.86600
O473        O  0.33149884  0.70013849  0.47666467    -0.73300
O474        O  0.33202039  0.73907164  0.51069873    -0.85500
Zr475      Zr  0.40870220  0.73069473  0.48645301     2.26400
Zr476      Zr  0.36817474  0.67232213  0.46975195     2.06300
Zr477      Zr  0.36398994  0.75457850  0.53961391     2.10000
Zr478      Zr  0.38975112  0.68224597  0.54304538     1.78800
O479        O  0.36966123  0.80102030  0.53848204    -0.94300
O480        O  0.40189187  0.63691068  0.54363568    -0.42100
O481        O  0.39857774  0.72528144  0.53095116    -0.78700
O482        O  0.40199328  0.68644437  0.49807211    -0.97400
O483        O  0.37539081  0.71617480  0.45882759    -0.90700
O484        O  0.37393701  0.75993964  0.49492210    -0.93600
C485        C  0.33489065  0.66098470  0.57537340     1.00200
C486        C  0.29422540  0.74883481  0.54249451     1.13100
C487        C  0.31874903  0.63491890  0.49714073     1.03900
O488        O  0.39901329  0.63684606  0.47038469    -0.95700
O489        O  0.39685232  0.68169040  0.43286095    -0.91500
O490        O  0.42283685  0.71454607  0.44552232    -0.84600
C491        C  0.41521659  0.69798062  0.42889522     1.10500
O492        O  0.29413108  0.74871839  0.46039586    -0.97700
Zr493      Zr  0.34063665  0.74451671  0.46655061     1.88900
O494        O  0.40943724  0.76739164  0.45825123    -0.74300
O495        O  0.34699206  0.65356121  0.43203481    -0.53600
O496        O  0.33020241  0.73226039  0.42237995    -0.98300
O497        O  0.31977843  0.78624368  0.47290950    -0.55500
O498        O  0.36918791  0.77160199  0.44139393    -0.74900
C499        C  0.39311233  0.77788166  0.44305274     0.97500
O500        O  0.45456281  0.72032849  0.48211156    -0.63700
O501        O  0.35650953  0.76343817  0.58527848    -0.58500
O502        O  0.43469071  0.75883228  0.51263196    -0.95200
O503        O  0.41250389  0.75954040  0.55040063    -0.93600
O504        O  0.40348593  0.69996365  0.58441033    -0.93900
O505        O  0.43576802  0.67401786  0.54869424    -0.92700
C506        C  0.43406243  0.76155440  0.53708556     1.16300
H507        H  0.34890795  0.71075230  0.56912449     0.32300
H508        H  0.41760983  0.67680194  0.49464871     0.43100
H509        H  0.37815770  0.77775229  0.49213067     0.36700
H510        H  0.31699776  0.69404347  0.46666794     0.33100
H511        H  0.40514800  0.63315487  0.56201275     0.24900
H512        H  0.32827329  0.65660613  0.43482313     0.30900
H513        H  0.34703287  0.72769749  0.41436487     0.36800
H514        H  0.40945840  0.68491220  0.59429609     0.31200
H515        H  0.36595133  0.74963703  0.59430859     0.30100
H516        H  0.35723389  0.80698417  0.52535746     0.31800
H517        H  0.33120177  0.79872752  0.46425224     0.30800
H518        H  0.44426600  0.68342828  0.53453590     0.34800
H519        H  0.46313008  0.73662580  0.47740513     0.27500
H520        H  0.26714814  0.69182693  0.52175907     0.31700
H521        H  0.28830293  0.73162106  0.45423300     0.34600
H522        H  0.36664908  0.77916765  0.58895409     0.27200
H523        H  0.46061516  0.71663021  0.49976820     0.40000
H524        H  0.39045459  0.62285313  0.46056814     0.30100
H525        H  0.38578597  0.62748593  0.53952686     0.37700
H526        H  0.32174473  0.79012811  0.49152382     0.29600
H527        H  0.35154043  0.66495154  0.41756477     0.29600
H528        H  0.27413913  0.71134285  0.49997354     0.29900
Zr529      Zr  0.78086262  0.07482334  0.82233728     2.17500
O530        O  0.79541969  0.08096499  0.86688263    -0.52500
O531        O  0.82279592  0.09681422  0.82612088    -0.75700
O532        O  0.78444423  0.03578725  0.84756521    -0.82400
O533        O  0.73696027  0.13419877  0.82414243    -0.84200
O534        O  0.78246844  0.00098140  0.82054901    -0.79800
O535        O  0.75815447  0.10559559  0.84918776    -0.91400
O536        O  0.83869675  0.10803499  0.78725913    -0.77400
O537        O  0.80528891  0.05451498  0.78845901    -0.86900
O538        O  0.78420233  0.10826105  0.79165695    -0.86600
O539        O  0.75456290  0.03956904  0.80688059    -0.73300
O540        O  0.73738170  0.08701046  0.81072095    -0.85500
Zr541      Zr  0.74206528  0.06722147  0.73047033     2.26400
Zr542      Zr  0.77914479  0.01854503  0.77287909     2.06300
Zr543      Zr  0.74116078  0.12010059  0.77919997     2.10000
Zr544      Zr  0.80882753  0.08868920  0.75764235     1.78800
O545        O  0.71245903  0.15635435  0.78817125    -0.94300
O546        O  0.84892686  0.06436884  0.75223809    -0.42100
O547        O  0.76662534  0.10328016  0.74433464    -0.78700
O548        O  0.78455504  0.05303308  0.74240145    -0.97400
O549        O  0.73713260  0.03272947  0.76021966    -0.90700
O550        O  0.71643648  0.08431470  0.76452767    -0.93600
C551        C  0.83921811  0.10864844  0.81182333     1.00200
C552        C  0.74439105  0.12579171  0.84613469     1.13100
C553        C  0.78293034  0.01138855  0.84407467     1.03900
O554        O  0.82209978  0.99950637  0.76909216    -0.95700
O555        O  0.77665823  0.00577812  0.72293732    -0.91500
O556        O  0.75246429  0.03480096  0.70049516    -0.84600
C557        C  0.76649533  0.01478763  0.70120126     1.10500
O558        O  0.69484347  0.05561501  0.83790278    -0.97700
Zr559      Zr  0.71258218  0.05146635  0.79447550     1.88900
O560        O  0.70405862  0.04285732  0.72055215    -0.74300
O561        O  0.76085399  0.97545735  0.77284705    -0.53600
O562        O  0.70243169  0.01127916  0.81601066    -0.98300
O563        O  0.66993917  0.07166544  0.79674495    -0.55500
O564        O  0.69135633  0.02809753  0.75971438    -0.74900
C565        C  0.69052331  0.02841561  0.73496019     0.97500
O566        O  0.75703608  0.08279301  0.68885233    -0.63700
O567        O  0.76920200  0.15480410  0.76539758    -0.58500
O568        O  0.71190940  0.09853197  0.71470910    -0.95200
O569        O  0.70829094  0.12944268  0.74575880    -0.93600
O570        O  0.82087982  0.13066491  0.74113134    -0.93900
O571        O  0.82178218  0.08916035  0.71238508    -0.92700
C572        C  0.70090910  0.11842091  0.72455461     1.16300
H573        H  0.79241070  0.12336792  0.79881870     0.32300
H574        H  0.79420067  0.04737202  0.72747557     0.43100
H575        H  0.69887085  0.08769471  0.75977828     0.36700
H576        H  0.74836393  0.02867663  0.82013835     0.33100
H577        H  0.84577830  0.05239880  0.73760593     0.24900
H578        H  0.74208126  0.97818439  0.77031057     0.30900
H579        H  0.70842033  0.99761883  0.80392965     0.36800
H580        H  0.81863155  0.14274178  0.75586627     0.31200
H581        H  0.75781374  0.16628018  0.75539181     0.30100
H582        H  0.69575826  0.14845690  0.79305228     0.31800
H583        H  0.66169316  0.06794352  0.77992446     0.30800
H584        H  0.80726361  0.09752751  0.70332338     0.34800
H585        H  0.74207044  0.08108355  0.67711473     0.27500
H586        H  0.81140362  0.07063068  0.86881169     0.31700
H587        H  0.70092108  0.07254906  0.84431373     0.34600
H588        H  0.77303113  0.16461432  0.78139406     0.27200
H589        H  0.75923285  0.10156836  0.69130845     0.40000
H590        H  0.81957287  0.98393782  0.75823190     0.30100
H591        H  0.86155403  0.07693171  0.74552270     0.37700
H592        H  0.67312715  0.09043478  0.79684746     0.29600
H593        H  0.76691163  0.96737683  0.75653098     0.29600
H594        H  0.78249249  0.07278030  0.87827381     0.29900
Zr595      Zr  0.67753146  0.00316258  0.57235257     2.17500
O596        O  0.67149630  0.99471670  0.61830273    -0.52500
O597        O  0.65832816  0.04186113  0.59241975    -0.75700
O598        O  0.71692177  0.00037280  0.59677638    -0.82400
O599        O  0.61052983  0.97461065  0.55997789    -0.84200
O600        O  0.75106337  0.00829255  0.57018007    -0.79800
O601        O  0.64475271  0.97318329  0.58711467    -0.91400
O602        O  0.65664612  0.07426559  0.56367116    -0.77400
O603        O  0.70296309  0.03380845  0.54929332    -0.86900
O604        O  0.64654366  0.02477037  0.54651038    -0.86600
O605        O  0.71040572  0.97979767  0.54791005    -0.73300
O606        O  0.65934268  0.97041231  0.54550911    -0.85500
Zr607      Zr  0.68134653  0.00148777  0.47108065     2.26400
Zr608      Zr  0.73443621  0.01076514  0.52273765     2.06300
Zr609      Zr  0.62784792  0.99247158  0.52007267     2.10000
Zr610      Zr  0.67181433  0.05570422  0.52381848     1.78800
O611        O  0.59340133  0.96102177  0.51651908    -0.94300
O612        O  0.70704324  0.08484160  0.53513745    -0.42100
O613        O  0.65019420  0.02498636  0.49628147    -0.78700
O614        O  0.70257783  0.03348427  0.49799871    -0.97400
O615        O  0.71353354  0.97956208  0.49616192    -0.90700
O616        O  0.65947857  0.96934168  0.49573689    -0.93600
C617        C  0.65131763  0.06456096  0.58556466     1.00200
C618        C  0.62138690  0.96756605  0.58099239     1.13100
C619        C  0.74112584  0.00355206  0.59314899     1.03900
O620        O  0.75761774  0.05134355  0.52073456    -0.95700
O621        O  0.74776420  0.00682964  0.47324646    -0.91500
O622        O  0.71514389  0.02414347  0.45095966    -0.84600
C623        C  0.73735297  0.01397341  0.45106504     1.10500
O624        O  0.69859427  0.91663804  0.55394809    -0.97700
Zr625      Zr  0.69121945  0.94812913  0.52037102     1.88900
O626        O  0.70653982  0.96607697  0.45256899    -0.74300
O627        O  0.77593903  0.98844185  0.52346302    -0.53600
O628        O  0.73429552  0.92918250  0.51756010    -0.98300
O629        O  0.66176063  0.91170793  0.52225415    -0.55500
O630        O  0.69049060  0.93410480  0.47571429    -0.74900
C631        C  0.70697165  0.94264468  0.45974339     0.97500
O632        O  0.67369113  0.02471408  0.43120160    -0.63700
O633        O  0.59387764  0.02469205  0.52520762    -0.58500
O634        O  0.64412196  0.98593454  0.44730741    -0.95200
O635        O  0.61185157  0.99120452  0.47574115    -0.93600
O636        O  0.63658664  0.08574554  0.51610820    -0.93900
O637        O  0.67385770  0.08264362  0.48566339    -0.92700
C638        C  0.62234475  0.97908859  0.45672221     1.16300
H639        H  0.63206363  0.03209661  0.55585056     0.32300
H640        H  0.71137165  0.04685947  0.48863926     0.43100
H641        H  0.65119835  0.95593031  0.48606853     0.36700
H642        H  0.72180300  0.97040483  0.55914247     0.33100
H643        H  0.69979950  0.10231376  0.53290561     0.24900
H644        H  0.78139415  0.98692965  0.50519429     0.30900
H645        H  0.74389020  0.93653801  0.53236815     0.36800
H646        H  0.62289656  0.07516354  0.50802319     0.31200
H647        H  0.59586445  0.03586711  0.51001785     0.30100
H648        H  0.60225991  0.94422530  0.51823621     0.31800
H649        H  0.66459420  0.90215468  0.50587250     0.30800
H650        H  0.68921269  0.09372648  0.48797104     0.34800
H651        H  0.67273810  0.01151708  0.41731614     0.27500
H652        H  0.68015369  0.00884979  0.62784350     0.31700
H653        H  0.68799225  0.92282779  0.56871644     0.34600
H654        H  0.57765399  0.01516614  0.52193934     0.27200
H655        H  0.65599800  0.03191845  0.43273921     0.40000
H656        H  0.77068148  0.05025887  0.53457836     0.30100
H657        H  0.70921095  0.08329217  0.55401296     0.37700
H658        H  0.64430103  0.91934667  0.52054830     0.29600
H659        H  0.78808859  0.00102391  0.53113539     0.29600
H660        H  0.68162842  0.97904027  0.62218825     0.29900
Zr661      Zr  0.75470101  0.91184161  0.22196398     2.17500
O662        O  0.72527044  0.89704431  0.18835340    -0.52500
O663        O  0.78509613  0.93762650  0.19770164    -0.75700
O664        O  0.72836568  0.94456619  0.20441948    -0.82400
O665        O  0.76669990  0.84694832  0.22513927    -0.84200
O666        O  0.74727415  0.97785620  0.22414426    -0.79800
O667        O  0.77332735  0.87751385  0.19628056    -0.91400
O668        O  0.82142005  0.92523521  0.21694687    -0.77400
O669        O  0.77710621  0.94637999  0.24366289    -0.86900
O670        O  0.79262517  0.89383647  0.24192669    -0.86600
O671        O  0.72433196  0.93058577  0.25283643    -0.73300
O672        O  0.73866812  0.87907848  0.24994931    -0.85500
Zr673      Zr  0.76921181  0.91304783  0.32082650     2.26400
Zr674      Zr  0.74729968  0.96564161  0.27344080     2.06300
Zr675      Zr  0.77677910  0.86121639  0.26902757     2.10000
Zr676      Zr  0.81438298  0.92791440  0.26312504     1.78800
O677        O  0.76178540  0.81689387  0.27049062    -0.94300
O678        O  0.83187942  0.97118983  0.25956421    -0.42100
O679        O  0.79979016  0.89478640  0.29122319    -0.78700
O680        O  0.78479990  0.94679907  0.29353811    -0.97400
O681        O  0.73207200  0.93273408  0.30201490    -0.90700
O682        O  0.74711080  0.87855541  0.30004790    -0.93600
C683        C  0.80937973  0.93965944  0.20139038     1.00200
C684        C  0.77840184  0.85524353  0.20511428     1.13100
C685        C  0.73860829  0.96652095  0.20292086     1.03900
O686        O  0.76607449  0.00846656  0.27209902    -0.95700
O687        O  0.74916346  0.98204766  0.32154301    -0.91500
O688        O  0.76335851  0.95007149  0.34769620    -0.84600
C689        C  0.75572528  0.97315602  0.34447104     1.10500
O690        O  0.67716164  0.89381005  0.24856696    -0.97700
Zr691      Zr  0.71026448  0.89781953  0.28159618     1.88900
O692        O  0.73618901  0.90142580  0.35130258    -0.74300
O693        O  0.70536770  0.98708752  0.27476810    -0.53600
O694        O  0.66967761  0.91754748  0.29545416    -0.98300
O695        O  0.69550736  0.85333037  0.28073968    -0.55500
O696        O  0.70135110  0.89132019  0.32684046    -0.74900
C697        C  0.71305725  0.89329696  0.34850787     0.97500
O698        O  0.80515857  0.92142691  0.35005075    -0.63700
O699        O  0.81915884  0.84275453  0.25979094    -0.58500
O700        O  0.78260559  0.87340009  0.34051264    -0.95200
O701        O  0.78763676  0.84201978  0.30986984    -0.93600
O702        O  0.85592864  0.90728728  0.25457459    -0.93900
O703        O  0.84614360  0.93041020  0.29769409    -0.92700
C704        C  0.78814513  0.85041778  0.33315618     1.16300
H705        H  0.80506053  0.88600610  0.23041811     0.32300
H706        H  0.79373432  0.95962967  0.30372075     0.43100
H707        H  0.74185273  0.86536273  0.31188144     0.36700
H708        H  0.70895062  0.93725013  0.24475602     0.33100
H709        H  0.81979026  0.98234015  0.26946409     0.24900
H710        H  0.70331306  0.99440310  0.25735868     0.30900
H711        H  0.67484742  0.93317007  0.30520789     0.36800
H712        H  0.85201512  0.88868438  0.25366658     0.31200
H713        H  0.83067795  0.85060963  0.27285829     0.30100
H714        H  0.75069610  0.81602907  0.28605658     0.31800
H715        H  0.69234248  0.84896273  0.29900375     0.30800
H716        H  0.84492971  0.91379183  0.30672375     0.34800
H717        H  0.81784455  0.90748704  0.34664130     0.27500
H718        H  0.73502576  0.89846917  0.17196728     0.31700
H719        H  0.68491250  0.88219889  0.23535906     0.34600
H720        H  0.81767269  0.82457194  0.26503682     0.27200
H721        H  0.81361338  0.93701232  0.34325430     0.40000
H722        H  0.77999166  0.00709093  0.25898692     0.30100
H723        H  0.84798220  0.97129310  0.26981322     0.37700
H724        H  0.71093113  0.84306617  0.27578707     0.29600
H725        H  0.69260465  0.97296600  0.27546500     0.29600
H726        H  0.72325741  0.87834039  0.19107946     0.29900
Zr727      Zr  0.84091044  0.98608138  0.07405593     2.17500
O728        O  0.84445507  0.00167158  0.11852052    -0.52500
O729        O  0.85783192  0.94486608  0.08769853    -0.75700
O730        O  0.80299199  0.97862733  0.09984861    -0.82400
O731        O  0.90853472  0.01828964  0.06339031    -0.84200
O732        O  0.76843616  0.97369321  0.07293354    -0.79800
O733        O  0.88178432  0.99953991  0.09251356    -0.91400
O734        O  0.87115783  0.92370277  0.05163517    -0.77400
O735        O  0.82115288  0.95602607  0.04472827    -0.86900
O736        O  0.87385862  0.97777699  0.04335085    -0.86600
O737        O  0.80340426  0.00700142  0.05608020    -0.73300
O738        O  0.85238876  0.02710156  0.05694733    -0.85500
Zr739      Zr  0.82676125  0.01152152  0.97916125     2.26400
Zr740      Zr  0.78421012  0.97764602  0.02498060     2.06300
Zr741      Zr  0.88381914  0.01793043  0.02390230     2.10000
Zr742      Zr  0.85527611  0.94794514  0.01455494     1.78800
O743        O  0.90287235  0.05947082  0.03444878    -0.94300
O744        O  0.83048675  0.90821612  0.01154393    -0.42100
O745        O  0.86471228  0.98857090  0.99362338    -0.78700
O746        O  0.81870532  0.96851189  0.99590171    -0.97400
O747        O  0.79707878  0.01774034  0.01157292    -0.90700
O748        O  0.84697647  0.04066472  0.00817068    -0.93600
C749        C  0.86980028  0.92629014  0.07631122     1.00200
C750        C  0.90311370  0.01031363  0.08604502     1.13100
C751        C  0.77870973  0.97581781  0.09621146     1.03900
O752        O  0.76707520  0.93389417  0.02179084    -0.95700
O753        O  0.77231242  0.97890459  0.97423761    -0.91500
O754        O  0.80942603  0.98070644  0.95131073    -0.84600
C755        C  0.78515911  0.97846479  0.95173576     1.10500
O756        O  0.80641179  0.05765874  0.08539637    -0.97700
Zr757      Zr  0.81480323  0.04755501  0.03995652     1.88900
O758        O  0.78826401  0.04019497  0.97822821    -0.74300
O759        O  0.73900403  0.99068473  0.02503774    -0.53600
O760        O  0.77415754  0.06788664  0.05259345    -0.98300
O761        O  0.83922316  0.08715824  0.04729694    -0.55500
O762        O  0.80207579  0.07214623  0.00340469    -0.74900
C763        C  0.78529566  0.06270908  0.98831846     0.97500
O764        O  0.82036950  0.02019358  0.93315730    -0.63700
O765        O  0.92318176  0.99626670  0.00927300    -0.58500
O766        O  0.86133878  0.03501544  0.95828263    -0.95200
O767        O  0.89642146  0.03827861  0.98410932    -0.93600
O768        O  0.90062561  0.93587722  0.00867793    -0.93900
O769        O  0.86032884  0.92786247  0.97207879    -0.92700
C770        C  0.88415772  0.04309209  0.96328258     1.16300
H771        H  0.88912847  0.97054161  0.05115969     0.32300
H772        H  0.81276788  0.95479872  0.98472474     0.43100
H773        H  0.85143769  0.05697098  0.00061534     0.36700
H774        H  0.79106797  0.01236968  0.06906707     0.33100
H775        H  0.84362102  0.89441603  0.00966358     0.24900
H776        H  0.72997746  0.97761635  0.03545251     0.30900
H777        H  0.77686115  0.08648152  0.04969718     0.36800
H778        H  0.90070623  0.91956876  0.99865037     0.31200
H779        H  0.92603668  0.98235638  0.02181780     0.30100
H780        H  0.92083417  0.05836851  0.02783901     0.31800
H781        H  0.84642878  0.08570720  0.06488190     0.30800
H782        H  0.87251269  0.93911032  0.96274238     0.34800
H783        H  0.81932281  0.03912179  0.93153681     0.27500
H784        H  0.83993809  0.98710508  0.12979644     0.31700
H785        H  0.82248582  0.05291607  0.09451106     0.34600
H786        H  0.91818334  0.98719799  0.99316288     0.27200
H787        H  0.83625164  0.01494720  0.92369024     0.40000
H788        H  0.75095505  0.93413100  0.03217083     0.30100
H789        H  0.82315870  0.90578695  0.02900540     0.37700
H790        H  0.82589713  0.10081969  0.04890893     0.29600
H791        H  0.73865010  0.00641527  0.03596776     0.29600
H792        H  0.83046616  0.01449242  0.12100503     0.29900
Zr793      Zr  0.91816496  0.65010481  0.00173722     2.17500
O794        O  0.88341797  0.65168131  0.03362408    -0.52500
O795        O  0.89496652  0.63718934  0.96266786    -0.75700
O796        O  0.89187225  0.68744612  0.99653665    -0.82400
O797        O  0.92724314  0.58184708  0.02458963    -0.84200
O798        O  0.91962792  0.72142659  0.99554989    -0.79800
O799        O  0.89733089  0.60959835  0.00878575    -0.91400
O800        O  0.92569682  0.62681635  0.93300941    -0.77400
O801        O  0.94244319  0.67276985  0.97013699    -0.86900
O802        O  0.94402646  0.61758120  0.98230505    -0.86600
O803        O  0.94191157  0.68311015  0.02451474    -0.73300
O804        O  0.94290840  0.63273251  0.03642617    -0.85500
Zr805      Zr  0.01822376  0.65152893  0.00503243     2.26400
Zr806      Zr  0.96768632  0.70493405  0.99277766     2.06300
Zr807      Zr  0.96928605  0.60020734  0.01616900     2.10000
Zr808      Zr  0.96753040  0.63950879  0.95011578     1.78800
O809        O  0.96634490  0.57236743  0.05354956    -0.94300
O810        O  0.95852988  0.66858724  0.91473164    -0.42100
O811        O  0.99425582  0.61929908  0.98231969    -0.78700
O812        O  0.99259222  0.67136281  0.97168287    -0.97400
O813        O  0.99341531  0.68537862  0.02525185    -0.90700
O814        O  0.99298307  0.63249027  0.03831036    -0.93600
C815        C  0.90205111  0.62788765  0.94064258     1.00200
C816        C  0.90414276  0.58811039  0.01844332     1.13100
C817        C  0.89602909  0.71163084  0.99676153     1.03900
O818        O  0.96933277  0.72751431  0.95198709    -0.95700
O819        O  0.01703529  0.71798482  0.99670478    -0.91500
O820        O  0.04026045  0.68397427  0.98245550    -0.84600
C821        C  0.03944865  0.70700673  0.99047999     1.10500
O822        O  0.93287811  0.67344296  0.08784496    -0.97700
Zr823      Zr  0.96820776  0.66544153  0.05756788     1.88900
O824        O  0.03683024  0.67808008  0.03880091    -0.74300
O825        O  0.96664190  0.74707965  0.01368183    -0.53600
O826        O  0.96811992  0.70957530  0.07383836    -0.98300
O827        O  0.96921566  0.63962271  0.09654920    -0.55500
O828        O  0.01238728  0.66838578  0.07330351    -0.74900
C829        C  0.03070111  0.68080048  0.06256124     0.97500
O830        O  0.05772744  0.63720613  0.98298621    -0.63700
O831        O  0.96930039  0.56243417  0.98797897    -0.58500
O832        O  0.04002595  0.61709416  0.02709966    -0.95200
O833        O  0.01194172  0.58359078  0.02777441    -0.93600
O834        O  0.97494839  0.59934989  0.92656570    -0.93900
O835        O  0.00519907  0.64232166  0.92191556    -0.92700
C836        C  0.03314961  0.59466627  0.03445938     1.16300
H837        H  0.93389097  0.60388996  0.97476012     0.32300
H838        H  0.00287877  0.67917935  0.95838873     0.43100
H839        H  0.00229907  0.62557797  0.05255277     0.36700
H840        H  0.93009811  0.69490975  0.03301262     0.33100
H841        H  0.95390002  0.65717837  0.90005872     0.24900
H842        H  0.98098985  0.74668371  0.02624895     0.30900
H843        H  0.97354700  0.70826097  0.09206420     0.36800
H844        H  0.97087291  0.60339089  0.90841528     0.31200
H845        H  0.98742856  0.55627097  0.98789716     0.30100
H846        H  0.97778333  0.58032138  0.06664283     0.31800
H847        H  0.98554017  0.62965650  0.09558775     0.30800
H848        H  0.01966068  0.63548785  0.93226634     0.34800
H849        H  0.05700859  0.61818741  0.98251035     0.27500
H850        H  0.86719792  0.65284367  0.02362082     0.31700
H851        H  0.91726580  0.67472769  0.07697210     0.34600
H852        H  0.95971673  0.54926847  0.99777025     0.27200
H853        H  0.05547292  0.64195407  0.96470333     0.40000
H854        H  0.95335863  0.73806719  0.95192566     0.30100
H855        H  0.94212876  0.67734294  0.91947672     0.37700
H856        H  0.95550840  0.62659555  0.09403362     0.29600
H857        H  0.97251704  0.75908721  0.00021345     0.29600
H858        H  0.88508622  0.66856947  0.04244782     0.29900
Zr859      Zr  0.77432396  0.74239437  0.92773213     2.17500
O860        O  0.81551287  0.76098499  0.91450538    -0.52500
O861        O  0.78994303  0.70820352  0.95516026    -0.75700
O862        O  0.79320815  0.76548836  0.96238817    -0.82400
O863        O  0.77363973  0.73203073  0.85963332    -0.84200
O864        O  0.76848398  0.74898025  0.99362972    -0.79800
O865        O  0.79870999  0.72197362  0.89318065    -0.91400
O866        O  0.76700322  0.67503166  0.93988019    -0.77400
O867        O  0.74666017  0.72223667  0.95899238    -0.86900
O868        O  0.74999238  0.70970965  0.90591452    -0.86600
O869        O  0.74727396  0.77604251  0.94636205    -0.73300
O870        O  0.75159851  0.76498355  0.89490594    -0.85500
Zr871      Zr  0.67338706  0.74554616  0.92021776     2.26400
Zr872      Zr  0.72023030  0.75505473  0.97790318     2.06300
Zr873      Zr  0.72814428  0.73165565  0.87270648     2.10000
Zr874      Zr  0.72272874  0.69025234  0.93646811     1.78800
O875        O  0.72741621  0.75340171  0.83140441    -0.94300
O876        O  0.71644755  0.67086961  0.97857955    -0.42100
O877        O  0.69988598  0.71160078  0.90300453    -0.78700
O878        O  0.69567736  0.72305666  0.95446177    -0.97400
O879        O  0.69627519  0.77722876  0.94469615    -0.90700
O880        O  0.70074299  0.76529447  0.88926283    -0.93600
C881        C  0.78308536  0.68465768  0.95582210     1.00200
C882        C  0.79131809  0.71820523  0.86990876     1.13100
C883        C  0.79144331  0.75565174  0.98447809     1.03900
O884        O  0.71992568  0.74164563  0.02267500    -0.95700
O885        O  0.67221614  0.75022712  0.99369288    -0.91500
O886        O  0.64696535  0.74387563  0.95836010    -0.84600
C887        C  0.64952214  0.74589977  0.98278541     1.10500
O888        O  0.75787784  0.82905420  0.91607763    -0.97700
Zr889      Zr  0.72347613  0.79715752  0.91351805     1.88900
O890        O  0.65332970  0.78425681  0.90258598    -0.74300
O891        O  0.71956915  0.79876250  0.99513896    -0.53600
O892        O  0.71384747  0.83225864  0.94361136    -0.98300
O893        O  0.73413166  0.81697207  0.87245452    -0.55500
O894        O  0.68331156  0.81563856  0.89954072    -0.74900
C895        C  0.66053699  0.80686756  0.89596132     0.97500
O896        O  0.62681158  0.73749750  0.92013150    -0.63700
O897        O  0.73610748  0.68950845  0.85327572    -0.58500
O898        O  0.65933550  0.71744166  0.88510902    -0.95200
O899        O  0.68804542  0.71922476  0.85194055    -0.93600
O900        O  0.72809402  0.64767570  0.91707619    -0.93900
O901        O  0.68292845  0.66722289  0.92684914    -0.92700
C902        C  0.66615418  0.71299369  0.86167129     1.16300
H903        H  0.76011155  0.69579950  0.89868344     0.32300
H904        H  0.68378399  0.71407648  0.96546194     0.43100
H905        H  0.69143161  0.77232863  0.87486148     0.36700
H906        H  0.75670504  0.78947906  0.95512447     0.33100
H907        H  0.69953596  0.67728244  0.98495620     0.24900
H908        H  0.70108507  0.80224689  0.99886687     0.30900
H909        H  0.69590500  0.82919184  0.94952940     0.36800
H910        H  0.72844534  0.65067774  0.89826597     0.31200
H911        H  0.72109880  0.67891567  0.85836139     0.30100
H912        H  0.72716927  0.73932090  0.81839310     0.31800
H913        H  0.72145642  0.80977266  0.86010056     0.30800
H914        H  0.67067324  0.67272989  0.94056441     0.34800
H915        H  0.62038337  0.74372652  0.90335282     0.27500
H916        H  0.82863422  0.75324805  0.92594147     0.31700
H917        H  0.77134565  0.82147438  0.92718292     0.34600
H918        H  0.73403506  0.69205688  0.83452787     0.27200
H919        H  0.62466729  0.71857866  0.91930512     0.40000
H920        H  0.72961116  0.72518451  0.02257343     0.30100
H921        H  0.71343640  0.65243777  0.97468598     0.37700
H922        H  0.75083820  0.80915007  0.86713489     0.29600
H923        H  0.72773156  0.79744628  0.01230272     0.29600
H924        H  0.81467875  0.77933816  0.91974791     0.29900
Zr925      Zr  0.51250064  0.80768451  0.99043034     2.17500
O926        O  0.55212482  0.82841479  0.00509927    -0.52500
O927        O  0.52467084  0.78464741  0.95196620    -0.75700
O928        O  0.54285310  0.77640960  0.00162223    -0.82400
O929        O  0.49828922  0.87086555  0.96133075    -0.84200
O930        O  0.51875754  0.74294157  0.01665353    -0.79800
O931        O  0.52934887  0.83996288  0.96234893    -0.91400
O932        O  0.48711938  0.78020547  0.92964046    -0.77400
O933        O  0.48358460  0.77329037  0.97994137    -0.86900
O934        O  0.47937723  0.82623824  0.96511812    -0.86600
O935        O  0.49859076  0.78953549  0.03060226    -0.73300
O936        O  0.49670535  0.84077775  0.01817464    -0.85500
Zr937      Zr  0.41849393  0.81083114  0.02338032     2.26400
Zr938      Zr  0.46890466  0.75549329  0.01972900     2.06300
Zr939      Zr  0.46390827  0.85996197  0.99249530     2.10000
Zr940      Zr  0.45033461  0.79347665  0.95576876     1.78800
O941        O  0.47681233  0.89189110  0.02464211    -0.94300
O942        O  0.43672383  0.75052699  0.94225846    -0.42100
O943        O  0.43231469  0.82749581  0.98227504    -0.78700
O944        O  0.43602822  0.77763835  0.99527859    -0.97400
O945        O  0.45065206  0.78869005  0.04781517    -0.90700
O946        O  0.44865762  0.84410325  0.03284195    -0.93600
C947        C  0.51161588  0.77739203  0.93237918     1.00200
C948        C  0.51938664  0.86030691  0.95292954     1.13100
C949        C  0.54118861  0.75389302  0.01048806     1.03900
O950        O  0.47260695  0.71146286  0.00358136    -0.95700
O951        O  0.42161126  0.73704699  0.01916576    -0.91500
O952        O  0.39400628  0.77112047  0.02427422    -0.84600
C953        C  0.39801945  0.74701619  0.02051135     1.10500
O954        O  0.52370550  0.81675003  0.07610458    -0.97700
Zr955      Zr  0.48067374  0.82230289  0.05764550     1.88900
O956        O  0.41027341  0.82898538  0.06655527    -0.74300
O957        O  0.46910604  0.73839363  0.06321869    -0.53600
O958        O  0.47482291  0.79485110  0.09502539    -0.98300
O959        O  0.50326368  0.85996726  0.07445935    -0.55500
O960        O  0.44789336  0.84197859  0.08457577    -0.74900
C961        C  0.42318167  0.84161570  0.08364269     0.97500
O962        O  0.37181147  0.80570629  0.02914668    -0.63700
O963        O  0.46236554  0.90126287  0.97069179    -0.58500
O964        O  0.39364211  0.84650539  0.00676086    -0.95200
O965        O  0.41972017  0.87540761  0.98740326    -0.93600
O966        O  0.44800579  0.81416262  0.91395947    -0.93900
O967        O  0.40565374  0.79570179  0.94098194    -0.92700
C968        C  0.39741130  0.86750114  0.99470932     1.16300
H969        H  0.48406982  0.83083027  0.94778179     0.32300
H970        H  0.42278056  0.76679718  0.98758394     0.43100
H971        H  0.44078825  0.85868923  0.04148719     0.36700
H972        H  0.51300962  0.78288634  0.04033623     0.33100
H973        H  0.42987892  0.75266705  0.92461340     0.24900
H974        H  0.45592875  0.72462666  0.06290458     0.30900
H975        H  0.47816056  0.80617812  0.11011814     0.36800
H976        H  0.44082350  0.80086140  0.90222019     0.31200
H977        H  0.45175379  0.89832171  0.95509331     0.30100
H978        H  0.49090738  0.90162175  0.01627935     0.31800
H979        H  0.48960320  0.87121965  0.08188420     0.30800
H980        H  0.39728054  0.80922264  0.95174016     0.34800
H981        H  0.36617612  0.82015761  0.04045588     0.27500
H982        H  0.56600717  0.82171671  0.99363172     0.31700
H983        H  0.52288798  0.80115545  0.08682822     0.34600
H984        H  0.45181871  0.91279779  0.98186928     0.27200
H985        H  0.36376296  0.80920670  0.01222821     0.40000
H986        H  0.46106374  0.70134986  0.01483486     0.30100
H987        H  0.45302572  0.74075011  0.93977701     0.37700
H988        H  0.50943187  0.86923156  0.05906378     0.29600
H989        H  0.48582010  0.72917530  0.06453689     0.29600
H990        H  0.55580523  0.82092070  0.02216431     0.29900
Zr991      Zr  0.26506322  0.75580180  0.07390380     2.17500
O992        O  0.31256844  0.75675916  0.07312198    -0.52500
O993        O  0.26589565  0.78957342  0.04151826    -0.75700
O994        O  0.29377512  0.73424480  0.04646287    -0.82400
O995        O  0.26004754  0.77947091  0.14386834    -0.84200
O996        O  0.26745753  0.72157444  0.01361741    -0.79800
O997        O  0.28534597  0.78036905  0.10818260    -0.91400
O998        O  0.23903775  0.81593461  0.06218755    -0.77400
O999        O  0.23130517  0.76291987  0.04601776    -0.86900
O1000       O  0.23513578  0.78122088  0.09816143    -0.86600
O1001       O  0.24977762  0.71351724  0.06155638    -0.73300
O1002       O  0.25367825  0.72902069  0.10975618    -0.85500
Zr1003     Zr  0.17198339  0.72315400  0.08838625     2.26400
Zr1004     Zr  0.21828252  0.72354212  0.02928067     2.06300
Zr1005     Zr  0.22222658  0.75429116  0.13268631     2.10000
Zr1006     Zr  0.20215569  0.78909264  0.06840004     1.78800
O1007       O  0.24006745  0.72689948  0.16594239    -0.94300
O1008       O  0.18930974  0.81372415  0.03088511    -0.42100
O1009       O  0.18712065  0.76411385  0.10382618    -0.78700
O1010       O  0.18708632  0.74910924  0.05316876    -0.97400
O1011       O  0.20245068  0.69726491  0.06456648    -0.90700
O1012       O  0.20412290  0.71408947  0.11972156    -0.93600
C1013       C  0.25423962  0.81118787  0.04353070     1.00200
C1014       C  0.27978095  0.78740914  0.13128099     1.13100
C1015       C  0.29073072  0.72516734  0.02397377     1.03900
O1016       O  0.21542684  0.74584582  0.98847654    -0.95700
O1017       O  0.16967869  0.71831615  0.01542243    -0.91500
O1018       O  0.14422599  0.72152130  0.05135555    -0.84600
C1019       C  0.14674047  0.71980317  0.02685051     1.10500
O1020       O  0.27607543  0.66677633  0.09162729    -0.97700
Zr1021     Zr  0.23454057  0.68860289  0.09651823     1.88900
O1022       O  0.16408007  0.67847566  0.09806025    -0.74300
O1023       O  0.21964366  0.68380014  0.00353261    -0.53600
O1024       O  0.23105440  0.64929534  0.07081028    -0.98300
O1025       O  0.25541531  0.67564811  0.13641557    -0.55500
O1026       O  0.20060421  0.66347098  0.11623695    -0.74900
C1027       C  0.17613266  0.66285670  0.11263615     0.97500
O1028       O  0.12471619  0.72391143  0.08844071    -0.63700
O1029       O  0.21301387  0.78688665  0.16579364    -0.58500
O1030       O  0.15295626  0.73555159  0.12989353    -0.95200
O1031       O  0.18238801  0.75405736  0.15662440    -0.93600
O1032       O  0.19346846  0.82368545  0.09962429    -0.93900
O1033       O  0.15704073  0.80165275  0.06203192    -0.92700
C1034       C  0.15958496  0.74637207  0.15124208     1.16300
H1035       H  0.24120447  0.79773514  0.10423464     0.32300
H1036       H  0.17347765  0.75542834  0.04199129     0.43100
H1037       H  0.19713838  0.70584736  0.13480411     0.36700
H1038       H  0.26271965  0.70198582  0.05469302     0.33100
H1039       H  0.19548869  0.83142706  0.03433915     0.24900
H1040       H  0.23792025  0.67808338  0.00396681     0.30900
H1041       H  0.22922218  0.63535352  0.08352307     0.36800
H1042       H  0.19572577  0.81586303  0.11677776     0.31200
H1043       H  0.22545307  0.78373513  0.17988335     0.30100
H1044       H  0.23879992  0.73727900  0.18201555     0.31800
H1045       H  0.24192274  0.67772865  0.14987264     0.30800
H1046       H  0.14742216  0.79372917  0.07643178     0.34800
H1047       H  0.11918124  0.71197144  0.10212096     0.27500
H1048       H  0.31780669  0.77506629  0.07276794     0.31700
H1049       H  0.28907634  0.68066356  0.09297156     0.34600
H1050       H  0.21839770  0.80347407  0.15832141     0.27200
H1051       H  0.11952010  0.74124019  0.09472929     0.40000
H1052       H  0.23260620  0.75387562  0.98630322     0.30100
H1053       H  0.20038084  0.80711474  0.01668829     0.37700
H1054       H  0.26814743  0.68932792  0.14027794     0.29600
H1055       H  0.21025255  0.67093452  0.01388372     0.29600
H1056       H  0.31864505  0.75020150  0.08991804     0.29900
Zr1057     Zr  0.31437695  0.94781904  0.13106299     2.17500
O1058       O  0.31213007  0.92126208  0.09198151    -0.52500
O1059       O  0.30697612  0.90287856  0.13935738    -0.75700
O1060       O  0.35795177  0.93999717  0.11620896    -0.82400
O1061       O  0.25370732  0.98761696  0.11845788    -0.84200
O1062       O  0.38150050  0.93978280  0.15217444    -0.79800
O1063       O  0.28526544  0.96416895  0.09849158    -0.91400
O1064       O  0.31106623  0.89604949  0.18221804    -0.77400
O1065       O  0.34097853  0.94240987  0.16768789    -0.86900
O1066       O  0.28442034  0.94229644  0.16590669    -0.86600
O1067       O  0.34081386  0.98619004  0.13220383    -0.73300
O1068       O  0.29138537  0.98636557  0.13719019    -0.85500
Zr1069     Zr  0.31195838  0.01435032  0.20828194     2.26400
Zr1070     Zr  0.36620348  0.98074626  0.17029446     2.06300
Zr1071     Zr  0.25927574  0.98151028  0.16838409     2.10000
Zr1072     Zr  0.31249783  0.93770121  0.20269462     1.78800
O1073       O  0.22028448  0.00788003  0.17046698    -0.94300
O1074       O  0.35234506  0.91752465  0.21762296    -0.42100
O1075       O  0.28762389  0.97588697  0.20399012    -0.78700
O1076       O  0.33802248  0.97601224  0.20712803    -0.97400
O1077       O  0.34165489  0.01980184  0.17358573    -0.90700
O1078       O  0.28422224  0.02030413  0.17175258    -0.93600
C1079       C  0.30826854  0.88823275  0.15897857     1.00200
C1080       C  0.26582169  0.97948095  0.09732653     1.13100
C1081       C  0.37521194  0.92980838  0.13035158     1.03900
O1082       O  0.40889143  0.97089313  0.18739458    -0.95700
O1083       O  0.38458029  0.00451620  0.20586942    -0.91500
O1084       O  0.35328384  0.02830235  0.22566095    -0.84600
C1085       C  0.37678942  0.02077819  0.22297030     1.10500
O1086       O  0.31249392  0.02519397  0.09028829    -0.97700
Zr1087     Zr  0.31490129  0.02499145  0.13709691     1.88900
O1088       O  0.30155559  0.05778833  0.19854253    -0.74300
O1089       O  0.39229221  0.00392846  0.13907815    -0.53600
O1090       O  0.35169220  0.04686807  0.11781035    -0.98300
O1091       O  0.27883725  0.05054317  0.12119937    -0.55500
O1092       O  0.32234752  0.06407789  0.16109395    -0.74900
C1093       C  0.31454562  0.07162296  0.18333773     0.97500
O1094       O  0.31168408  0.02379584  0.25455896    -0.63700
O1095       O  0.22807166  0.94682458  0.16302928    -0.58500
O1096       O  0.27298432  0.01738674  0.23350952    -0.95200
O1097       O  0.25121469  0.98322582  0.21788640    -0.93600
O1098       O  0.27553693  0.91883849  0.22464005    -0.93900
O1099       O  0.31521507  0.93318903  0.24930194    -0.92700
C1100       C  0.25802613  0.99841571  0.23713699     1.16300
H1101       H  0.27327964  0.92762076  0.16355950     0.32300
H1102       H  0.34798134  0.97491561  0.22279147     0.43100
H1103       H  0.27233928  0.03461008  0.17308390     0.36700
H1104       H  0.35141875  0.98730156  0.11688423     0.33100
H1105       H  0.35719882  0.90496659  0.20393971     0.24900
H1106       H  0.40510562  0.01348334  0.14955703     0.30900
H1107       H  0.36246025  0.03314119  0.10984863     0.36800
H1108       H  0.27048169  0.90396124  0.21371905     0.31200
H1109       H  0.22791666  0.93806225  0.17987589     0.30100
H1110       H  0.21090977  0.00372302  0.15434852     0.31800
H1111       H  0.27608561  0.06417920  0.13442451     0.30800
H1112       H  0.32940313  0.94473280  0.25481103     0.34800
H1113       H  0.32523836  0.01281073  0.26222812     0.27500
H1114       H  0.29359213  0.91793352  0.08862544     0.31700
H1115       H  0.32641043  0.01332488  0.08449793     0.34600
H1116       H  0.21101266  0.95543406  0.16209763     0.27200
H1117       H  0.31788191  0.04167493  0.25673697     0.40000
H1118       H  0.42123825  0.97504501  0.17343311     0.30100
H1119       H  0.36570764  0.93106119  0.21651071     0.37700
H1120       H  0.26353957  0.03928600  0.12277029     0.29600
H1121       H  0.40247619  0.99042842  0.12998443     0.29600
H1122       H  0.31803721  0.93229495  0.07770627     0.29900
Zr1123     Zr  0.24112720  0.93891495  0.96302741     2.17500
O1124       O  0.24869342  0.93532915  0.00928010    -0.52500
O1125       O  0.28461183  0.92157845  0.97186915    -0.75700
O1126       O  0.21463309  0.90390591  0.97747447    -0.82400
O1127       O  0.26605404  0.00249198  0.96731198    -0.84200
O1128       O  0.21272851  0.87469333  0.94600534    -0.79800
O1129       O  0.23322766  0.97994276  0.98305762    -0.91400
O1130       O  0.30249058  0.91050241  0.93321997    -0.77400
O1131       O  0.24118956  0.90719181  0.92982783    -0.86900
O1132       O  0.27272552  0.95381199  0.93273017    -0.86600
O1133       O  0.19693275  0.93684190  0.94785706    -0.73300
O1134       O  0.22667543  0.97960996  0.94747620    -0.85500
Zr1135     Zr  0.21440042  0.96018059  0.86983734     2.26400
Zr1136     Zr  0.19765663  0.90512131  0.91382265     2.06300
Zr1137     Zr  0.25851312  0.99494680  0.91813979     2.10000
Zr1138     Zr  0.27214360  0.92127666  0.89967434     1.78800
O1139       O  0.24957513  0.04094703  0.91964206    -0.94300
O1140       O  0.27462624  0.87437015  0.89741574    -0.42100
O1141       O  0.25778202  0.96218594  0.88545509    -0.78700
O1142       O  0.22893411  0.91830428  0.88224461    -0.97400
O1143       O  0.18422521  0.94644035  0.90053520    -0.90700
O1144       O  0.21505620  0.99339326  0.90227101    -0.93600
C1145       C  0.30326839  0.91260612  0.95783300     1.00200
C1146       C  0.25183654  0.99525667  0.98695973     1.13100
C1147       C  0.21806994  0.88098590  0.96933492     1.03900
O1148       O  0.19790591  0.86609727  0.88744716    -0.95700
O1149       O  0.16290412  0.90902625  0.88170459    -0.91500
O1150       O  0.17565125  0.94007998  0.85395435    -0.84600
C1151       C  0.15929887  0.92352696  0.86198783     1.10500
O1152       O  0.16500043  0.97734154  0.97579941    -0.97700
Zr1153     Zr  0.18344067  0.97840043  0.93251828     1.88900
O1154       O  0.18343241  0.99346875  0.86098744    -0.74300
O1155       O  0.15944372  0.89275702  0.93830157    -0.53600
O1156       O  0.13787288  0.96653289  0.93151440    -0.98300
O1157       O  0.18163174  0.02192534  0.95022093    -0.55500
O1158       O  0.16070380  0.99992805  0.89804506    -0.74900
C1159       C  0.16528442  0.00415318  0.87413834     0.97500
O1160       O  0.22316046  0.94525549  0.82591551    -0.63700
O1161       O  0.30399534  0.00700182  0.91971137    -0.58500
O1162       O  0.23806892  0.98860905  0.84358600    -0.95200
O1163       O  0.27010543  0.00299923  0.87010653    -0.93600
O1164       O  0.31477671  0.93522035  0.88572365    -0.93900
O1165       O  0.28391669  0.91170152  0.85508267    -0.92700
C1166       C  0.25975480  0.99950645  0.84715193     1.16300
H1167       H  0.28959711  0.95656653  0.94006175     0.32300
H1168       H  0.22872266  0.90657325  0.86767956     0.43100
H1169       H  0.21090635  0.01025105  0.89584979     0.36700
H1170       H  0.18463493  0.93225190  0.96106553     0.33100
H1171       H  0.28413128  0.87021237  0.88130237     0.24900
H1172       H  0.14604277  0.90543115  0.93343085     0.30900
H1173       H  0.13605296  0.95491366  0.91637331     0.36800
H1174       H  0.31408923  0.95421724  0.88714641     0.31200
H1175       H  0.30891080  0.01048419  0.90162891     0.30100
H1176       H  0.25961829  0.04741828  0.93456675     0.31800
H1177       H  0.18422081  0.03314370  0.93514523     0.30800
H1178       H  0.27168888  0.92196979  0.84473805     0.34800
H1179       H  0.22004022  0.92649011  0.82607029     0.27500
H1180       H  0.26464142  0.94518915  0.01280462     0.31700
H1181       H  0.18002439  0.97864773  0.98749909     0.34600
H1182       H  0.30411388  0.02410866  0.92828797     0.27200
H1183       H  0.20888663  0.95232533  0.81545184     0.40000
H1184       H  0.21008748  0.85439860  0.89621183     0.30100
H1185       H  0.28658959  0.86923173  0.91130295     0.37700
H1186       H  0.19775052  0.02375363  0.96030515     0.29600
H1187       H  0.15375753  0.87640798  0.93020607     0.29600
H1188       H  0.23467754  0.94526662  0.01786852     0.29900
Zr1189     Zr  0.20332574  0.99639421  0.70702710     2.17500
O1190       O  0.19235595  0.97538294  0.74749054    -0.52500
O1191       O  0.19434291  0.95187413  0.69534935    -0.75700
O1192       O  0.16046982  0.00602284  0.72416801    -0.82400
O1193       O  0.27571862  0.00704073  0.71731431    -0.84200
O1194       O  0.13676542  0.01374052  0.68858299    -0.79800
O1195       O  0.23805503  0.99842058  0.73856325    -0.91400
O1196       O  0.17852493  0.94786635  0.65606046    -0.77400
O1197       O  0.17913023  0.99452746  0.66823876    -0.86900
O1198       O  0.23299300  0.98001317  0.67466908    -0.86600
O1199       O  0.18844660  0.03987166  0.69950269    -0.73300
O1200       O  0.23849925  0.02575159  0.70222461    -0.85500
Zr1201     Zr  0.22499685  0.05361837  0.62519900     2.26400
Zr1202     Zr  0.16467616  0.03661018  0.65975609     2.06300
Zr1203     Zr  0.26660229  0.01146575  0.66826902     2.10000
Zr1204     Zr  0.20762962  0.97818965  0.63596535     1.78800
O1205       O  0.30657287  0.03634406  0.66905330    -0.94300
O1206       O  0.17437629  0.96882425  0.60381332    -0.42100
O1207       O  0.23673425  0.01176410  0.63591973    -0.78700
O1208       O  0.19190740  0.02088858  0.62540026    -0.97400
O1209       O  0.19809957  0.06751720  0.65948735    -0.90700
O1210       O  0.25304130  0.05564906  0.66179556    -0.93600
C1211       C  0.17566819  0.94597536  0.68039062     1.00200
C1212       C  0.26244620  0.00291704  0.73861541     1.13100
C1213       C  0.13885765  0.00991173  0.71277511     1.03900
O1214       O  0.13378912  0.01868002  0.62917693    -0.95700
O1215       O  0.15661905  0.06949260  0.62813242    -0.91500
O1216       O  0.18835420  0.06535337  0.59835525    -0.84600
C1217       C  0.16676631  0.07478926  0.60624590     1.10500
O1218       O  0.21152963  0.06597053  0.74156694    -0.97700
Zr1219     Zr  0.22476126  0.06853235  0.69651359     1.88900
O1220       O  0.22071677  0.10054967  0.63334997    -0.74300
O1221       O  0.13234856  0.06511761  0.67932684    -0.53600
O1222       O  0.22184554  0.10725336  0.72343961    -0.98300
O1223       O  0.27020697  0.07661710  0.70610141    -0.55500
O1224       O  0.21201513  0.10742453  0.67560340    -0.74900
C1225       C  0.21341342  0.11506452  0.65238563     0.97500
O1226       O  0.24368590  0.07310177  0.58659612    -0.63700
O1227       O  0.29653928  0.97509075  0.66626801    -0.58500
O1228       O  0.26301778  0.04195149  0.60067747    -0.95200
O1229       O  0.27343015  0.00443943  0.61915464    -0.93600
O1230       O  0.22985531  0.93683372  0.63941807    -0.93900
O1231       O  0.22790157  0.96482990  0.59573994    -0.92700
C1232       C  0.27099617  0.01883634  0.59864840     1.16300
H1233       H  0.24025475  0.96356343  0.67946176     0.32300
H1234       H  0.18267195  0.02006749  0.60928684     0.43100
H1235       H  0.26721342  0.06735517  0.65874215     0.36700
H1236       H  0.17718107  0.04660568  0.71293964     0.33100
H1237       H  0.17219862  0.94991193  0.60412697     0.24900
H1238       H  0.13572328  0.08233365  0.67212830     0.30900
H1239       H  0.23799774  0.11692698  0.72036768     0.36800
H1240       H  0.21979422  0.92480276  0.62845070     0.31200
H1241       H  0.31365138  0.98241697  0.67057452     0.30100
H1242       H  0.31047279  0.03886668  0.68759268     0.31800
H1243       H  0.27105160  0.07738202  0.72516013     0.30800
H1244       H  0.24638969  0.96243673  0.59998268     0.34800
H1245       H  0.22913207  0.07671911  0.57482706     0.27500
H1246       H  0.20604834  0.96237397  0.75031586     0.31700
H1247       H  0.21855117  0.04935903  0.74752679     0.34600
H1248       H  0.29199771  0.96440076  0.68128710     0.27200
H1249       H  0.24976192  0.09034377  0.59216361     0.40000
H1250       H  0.12083461  0.00967269  0.63984348     0.30100
H1251       H  0.15810643  0.97563811  0.61139729     0.37700
H1252       H  0.27342143  0.09448698  0.70056225     0.29600
H1253       H  0.11571651  0.05975922  0.67157917     0.29600
H1254       H  0.19482963  0.98848663  0.76126412     0.29900
Zr1255     Zr  0.24187570  0.06368897  0.45281417     2.17500
O1256       O  0.22462186  0.07420686  0.49576098    -0.52500
O1257       O  0.19605546  0.05878847  0.44434528    -0.75700
O1258       O  0.22943158  0.10625157  0.46499906    -0.82400
O1259       O  0.27085386  0.99931583  0.46702376    -0.84200
O1260       O  0.24503306  0.13611125  0.43755653    -0.79800
O1261       O  0.24751780  0.03154750  0.48569382    -0.91400
O1262       O  0.19019525  0.06820743  0.40226882    -0.77400
O1263       O  0.23881177  0.09070920  0.41624070    -0.86900
O1264       O  0.23270108  0.03436565  0.41847481    -0.86600
O1265       O  0.28108559  0.08848425  0.45079438    -0.73300
O1266       O  0.27791306  0.03842651  0.44812123    -0.85500
Zr1267     Zr  0.30726309  0.05474592  0.37675456     2.26400
Zr1268     Zr  0.27860211  0.11358347  0.41219927     2.06300
Zr1269     Zr  0.27005024  0.00697527  0.41774588     2.10000
Zr1270     Zr  0.23172430  0.06211657  0.38153341     1.78800
O1271       O  0.29794799  0.96885793  0.41529850    -0.94300
O1272       O  0.20781868  0.10048576  0.36807896    -0.42100
O1273       O  0.26800595  0.03681134  0.38587568    -0.78700
O1274       O  0.27184761  0.08519750  0.37599841    -0.97400
O1275       O  0.31490158  0.08482498  0.41081169    -0.90700
O1276       O  0.31107390  0.02817784  0.41396831    -0.93600
C1277       C  0.18175757  0.06480925  0.42518411     1.00200
C1278       C  0.26087671  0.01093395  0.48740715     1.13100
C1279       C  0.23042196  0.12907676  0.45637711     1.03900
O1280       O  0.26024832  0.14767150  0.38612344    -0.95700
O1281       O  0.31238183  0.12889788  0.38255584    -0.91500
O1282       O  0.32202199  0.09422351  0.35704804    -0.84600
C1283       C  0.32491332  0.11782522  0.36394730     1.10500
O1284       O  0.31368603  0.06578800  0.49492101    -0.97700
Zr1285     Zr  0.31701605  0.05927175  0.44841523     1.88900
O1286       O  0.35249993  0.04515285  0.38759129    -0.74300
O1287       O  0.30388164  0.14236003  0.43956906    -0.53600
O1288       O  0.34548538  0.09549904  0.45885617    -0.98300
O1289       O  0.33653646  0.02460284  0.47283437    -0.55500
O1290       O  0.35914008  0.05316719  0.43009366    -0.74900
C1291       C  0.36701229  0.04671649  0.40763659     0.97500
O1292       O  0.33120932  0.04044335  0.33835758    -0.63700
O1293       O  0.23540996  0.97546203  0.42352214    -0.58500
O1294       O  0.28760340  0.02511190  0.34560330    -0.95200
O1295       O  0.26558666  0.99545126  0.36911272    -0.93600
O1296       O  0.20644186  0.02775440  0.36201466    -0.93900
O1297       O  0.23442347  0.06472084  0.33475405    -0.92700
C1298       C  0.27295503  0.00521313  0.34693739     1.16300
H1299       H  0.21713525  0.02445888  0.42071631     0.32300
H1300       H  0.27160041  0.09481162  0.36010859     0.43100
H1301       H  0.32480722  0.01561564  0.41280798     0.36700
H1302       H  0.28254390  0.09949134  0.46581107     0.33100
H1303       H  0.22065442  0.11139459  0.35920258     0.24900
H1304       H  0.30418047  0.15885513  0.43024437     0.30900
H1305       H  0.33439657  0.10831708  0.46787545     0.36800
H1306       H  0.20277213  0.01575948  0.37622474     0.31200
H1307       H  0.22235464  0.97960623  0.41028221     0.30100
H1308       H  0.30308224  0.96554779  0.43333863     0.31800
H1309       H  0.35453451  0.03018180  0.47610200     0.30800
H1310       H  0.25294966  0.06209461  0.33063012     0.34800
H1311       H  0.34579373  0.05259412  0.33651173     0.27500
H1312       H  0.21210889  0.06058484  0.50029067     0.31700
H1313       H  0.33114120  0.07104689  0.50067388     0.34600
H1314       H  0.24285878  0.95882580  0.41762229     0.27200
H1315       H  0.33953590  0.02400070  0.34317383     0.40000
H1316       H  0.26349086  0.16366941  0.39611819     0.30100
H1317       H  0.19602485  0.09455717  0.35425128     0.37700
H1318       H  0.33824523  0.01017861  0.46031428     0.29600
H1319       H  0.29291606  0.14582788  0.45491634     0.29600
H1320       H  0.23901959  0.07264889  0.50818882     0.29900
Zr1321     Zr  0.02558966  0.94880009  0.75674648     2.17500
O1322       O  0.02927276  0.99547701  0.75407722    -0.52500
O1323       O  0.05642792  0.94035301  0.79124665    -0.75700
O1324       O  0.00169785  0.96795815  0.79234652    -0.82400
O1325       O  0.05342302  0.95921212  0.70189830    -0.84200
O1326       O  0.96148633  0.95143221  0.78837306    -0.79800
O1327       O  0.06720801  0.96327055  0.74164584    -0.91400
O1328       O  0.06599536  0.89779873  0.78895394    -0.77400
O1329       O  0.01364079  0.90996022  0.77803097    -0.86900
O1330       O  0.05069790  0.91578286  0.73565722    -0.86600
O1331       O  0.98075268  0.94183084  0.74663774    -0.73300
O1332       O  0.01239419  0.94945288  0.71179280    -0.85500
Zr1333     Zr  0.98346547  0.87008134  0.70496594     2.26400
Zr1334     Zr  0.96775547  0.90409136  0.77046438     2.06300
Zr1335     Zr  0.03815506  0.91680575  0.69141957     2.10000
Zr1336     Zr  0.03984115  0.87789527  0.75655973     1.78800
O1337       O  0.04601771  0.93884754  0.65100286    -0.94300
O1338       O  0.02925862  0.85213659  0.79416238    -0.42100
O1339       O  0.02921513  0.87637599  0.71147932    -0.78700
O1340       O  0.99579460  0.87320653  0.74943320    -0.97400
O1341       O  0.95578253  0.90160663  0.72521976    -0.90700
O1342       O  0.99339317  0.90920645  0.68372164    -0.93600
C1343       C  0.06889624  0.92028901  0.79856654     1.00200
C1344       C  0.07205643  0.96140945  0.71764418     1.13100
C1345       C  0.97720509  0.97100893  0.79304444     1.03900
O1346       O  0.96978671  0.89817064  0.81687287    -0.95700
O1347       O  0.95663646  0.85426798  0.77168409    -0.91500
O1348       O  0.96506677  0.83672956  0.73178539    -0.84600
C1349       C  0.95869532  0.83419571  0.75557469     1.10500
O1350       O  0.95662126  0.98604912  0.70795437    -0.97700
Zr1351     Zr  0.96730275  0.94052320  0.70362778     1.88900
O1352       O  0.95459666  0.87899172  0.66886840    -0.74300
O1353       O  0.92088618  0.90574622  0.77497417    -0.53600
O1354       O  0.92366819  0.94938254  0.71925282    -0.98300
O1355       O  0.97617920  0.96315364  0.66360156    -0.55500
O1356       O  0.94121048  0.92056311  0.67063156    -0.74900
C1357       C  0.94194378  0.89826468  0.66004381     0.97500
O1358       O  0.96631020  0.82865668  0.69033891    -0.63700
O1359       O  0.08222353  0.90124378  0.68509516    -0.58500
O1360       O  0.01707856  0.85278499  0.67670969    -0.95200
O1361       O  0.02782401  0.88889071  0.65613032    -0.93600
O1362       O  0.08540909  0.86821006  0.74880704    -0.93900
O1363       O  0.04686974  0.83220761  0.74777683    -0.92700
C1364       C  0.02807740  0.86464112  0.65818578     1.16300
H1365       H  0.06917326  0.91729249  0.73763461     0.32300
H1366       H  0.99718385  0.85706632  0.75735818     0.43100
H1367       H  0.98988612  0.90954791  0.66546908     0.36700
H1368       H  0.97197788  0.95790218  0.74880610     0.33100
H1369       H  0.04344949  0.85535860  0.80652003     0.24900
H1370       H  0.91628497  0.88940993  0.78343031     0.30900
H1371       H  0.92537049  0.95102113  0.73820811     0.36800
H1372       H  0.08646604  0.86268352  0.73051161     0.31200
H1373       H  0.08112182  0.88250265  0.68796555     0.30100
H1374       H  0.02861664  0.94098736  0.64339027     0.31800
H1375       H  0.98889535  0.97665135  0.66810000     0.30800
H1376       H  0.04960427  0.83083887  0.72890108     0.34800
H1377       H  0.95002561  0.83241023  0.68112120     0.27500
H1378       H  0.02487128  0.00289223  0.77119501     0.31700
H1379       H  0.97354045  0.99471991  0.70981320     0.34600
H1380       H  0.08537981  0.90275692  0.66633671     0.27200
H1381       H  0.97830096  0.82238942  0.67672993     0.40000
H1382       H  0.95772686  0.91124507  0.82409215     0.30100
H1383       H  0.01402640  0.86077045  0.80206364     0.37700
H1384       H  0.96006386  0.97258415  0.65951971     0.29600
H1385       H  0.91769197  0.91911737  0.78836786     0.29600
H1386       H  0.01498919  0.00078978  0.74265037     0.29900
Zr1387     Zr  0.95394947  0.61035837  0.68134787     2.17500
O1388       O  0.98711567  0.59182021  0.65320528    -0.52500
O1389       O  0.93086570  0.57321650  0.69629657    -0.75700
O1390       O  0.98121998  0.58370573  0.70571483    -0.82400
O1391       O  0.90736540  0.62166475  0.62514021    -0.84200
O1392       O  0.98378064  0.60299837  0.74528273    -0.79800
O1393       O  0.93147492  0.59101195  0.64477376    -0.91400
O1394       O  0.89571131  0.59015933  0.71696724    -0.77400
O1395       O  0.93979588  0.62110919  0.72407288    -0.86900
O1396       O  0.91129060  0.62638343  0.67780073    -0.86600
O1397       O  0.98462255  0.63993417  0.70015586    -0.73300
O1398       O  0.95874087  0.64551253  0.65293251    -0.85500
Zr1399     Zr  0.92778466  0.70409506  0.70746049     2.26400
Zr1400     Zr  0.96886792  0.65199321  0.74246968     2.06300
Zr1401     Zr  0.91540621  0.66141391  0.64898695     2.10000
Zr1402     Zr  0.89698288  0.63667605  0.71973759     1.78800
O1403       O  0.93274653  0.66503835  0.60550288    -0.94300
O1404       O  0.89406818  0.62227523  0.76424647    -0.42100
O1405       O  0.89825020  0.67270127  0.69110668    -0.78700
O1406       O  0.92516865  0.66840318  0.73730871    -0.97400
O1407       O  0.97079899  0.68758151  0.71395171    -0.90700
O1408       O  0.94497830  0.69306646  0.66593265    -0.93600
C1409       C  0.90947755  0.57126574  0.70853675     1.00200
C1410       C  0.91447009  0.59819568  0.62827402     1.13100
C1411       C  0.98719333  0.58288955  0.72944463     1.03900
O1412       O  0.95531590  0.64503223  0.78685580    -0.95700
O1413       O  0.97160384  0.70118027  0.75671784    -0.91500
O1414       O  0.93132022  0.71548670  0.75159123    -0.84600
C1415       C  0.95417383  0.71987106  0.75877365     1.10500
O1416       O  0.02245447  0.64723554  0.66158198    -0.97700
Zr1417     Zr  0.98709701  0.67644855  0.67267409     1.88900
O1418       O  0.95698077  0.73798822  0.69372742    -0.74300
O1419       O  0.01314889  0.65522462  0.75799616    -0.53600
O1420       O  0.03066391  0.69380019  0.66796295    -0.98300
O1421       O  0.98473446  0.69565457  0.63002707    -0.55500
O1422       O  0.99160298  0.71383864  0.70057563    -0.74900
C1423       C  0.98148743  0.73546175  0.69505535     0.97500
O1424       O  0.90419152  0.74160926  0.72391200    -0.63700
O1425       O  0.87015105  0.65951747  0.63618735    -0.58500
O1426       O  0.89259606  0.71616149  0.67949392    -0.95200
O1427       O  0.90391766  0.70526220  0.63938307    -0.93600
O1428       O  0.85428929  0.62773916  0.70204308    -0.93900
O1429       O  0.86088781  0.65822316  0.74133112    -0.92700
C1430       C  0.89702707  0.72213400  0.65616508     1.16300
H1431       H  0.89911345  0.61376114  0.67165681     0.32300
H1432       H  0.91801579  0.67312084  0.75394653     0.43100
H1433       H  0.94649976  0.70811294  0.65536865     0.36700
H1434       H  0.00132518  0.63180589  0.70183266     0.33100
H1435       H  0.91098607  0.61405697  0.76767962     0.24900
H1436       H  0.01136139  0.65894784  0.77668082     0.30900
H1437       H  0.03128222  0.70240697  0.65106472     0.36800
H1438       H  0.85652771  0.61241629  0.69074122     0.31200
H1439       H  0.86203782  0.67524125  0.64354854     0.30100
H1440       H  0.91932331  0.67453627  0.59590925     0.31800
H1441       H  0.99846021  0.68696286  0.61977747     0.30800
H1442       H  0.86123526  0.67601042  0.73474361     0.34800
H1443       H  0.90328004  0.75385493  0.70946905     0.27500
H1444       H  0.98214240  0.59697063  0.63558061     0.31700
H1445       H  0.01807734  0.64068417  0.64414411     0.34600
H1446       H  0.87036130  0.66225131  0.61733159     0.27200
H1447       H  0.88618827  0.73569391  0.72648679     0.40000
H1448       H  0.94710231  0.66145045  0.79230785     0.30100
H1449       H  0.89416699  0.63813821  0.77498456     0.37700
H1450       H  0.99083785  0.71355745  0.63239751     0.29600
H1451       H  0.02011376  0.63748552  0.75703990     0.29600
H1452       H  0.98404329  0.57304759  0.65356762     0.29900
Zr1453     Zr  0.94084753  0.45172086  0.77725159     2.17500
O1454       O  0.93968262  0.49812914  0.78382465    -0.52500
O1455       O  0.91065223  0.44600402  0.74081725    -0.75700
O1456       O  0.96580296  0.47015449  0.74291122    -0.82400
O1457       O  0.90795247  0.46250444  0.83357438    -0.84200
O1458       O  0.00466350  0.45015572  0.74512171    -0.79800
O1459       O  0.90567736  0.47687184  0.79412781    -0.91400
O1460       O  0.90112922  0.40359744  0.73726244    -0.77400
O1461       O  0.94996692  0.41269781  0.75410796    -0.86900
O1462       O  0.91231837  0.42057296  0.79542352    -0.86600
O1463       O  0.98527471  0.44209142  0.78689264    -0.73300
O1464       O  0.95154690  0.44963016  0.82270041    -0.85500
Zr1465     Zr  0.97491128  0.37073182  0.82611922     2.26400
Zr1466     Zr  0.99506131  0.40346633  0.76209176     2.06300
Zr1467     Zr  0.92212412  0.41875588  0.84048669     2.10000
Zr1468     Zr  0.92084198  0.38235048  0.77310829     1.78800
O1469       O  0.90225634  0.43687208  0.87932575    -0.94300
O1470       O  0.93034585  0.35270073  0.73750746    -0.42100
O1471       O  0.92983177  0.37885878  0.81864285    -0.78700
O1472       O  0.96425903  0.37444383  0.78130704    -0.97400
O1473       O  0.00537689  0.39988805  0.80742604    -0.90700
O1474       O  0.96706395  0.41049447  0.84777201    -0.93600
C1475       C  0.89930994  0.42681463  0.72963135     1.00200
C1476       C  0.89440645  0.46848731  0.81404159     1.13100
C1477       C  0.99038003  0.47105990  0.74170143     1.03900
O1478       O  0.99315338  0.39778654  0.71548060    -0.95700
O1479       O  0.00384115  0.35352809  0.76051879    -0.91500
O1480       O  0.99393324  0.33631974  0.79992007    -0.84600
C1481       C  0.00063297  0.33365584  0.77607659     1.10500
O1482       O  0.00476911  0.48503028  0.82673570    -0.97700
Zr1483     Zr  0.99653787  0.43907858  0.83028895     1.88900
O1484       O  0.01469096  0.37112974  0.85021782    -0.74300
O1485       O  0.04192995  0.40007754  0.75880075    -0.53600
O1486       O  0.04014655  0.44842353  0.81522419    -0.98300
O1487       O  0.99377499  0.46158125  0.87175935    -0.55500
O1488       O  0.02372481  0.41313397  0.85847165    -0.74900
C1489       C  0.02724867  0.38895407  0.86195235     0.97500
O1490       O  0.95748957  0.33057656  0.84219166    -0.63700
O1491       O  0.88023631  0.39739454  0.84085478    -0.58500
O1492       O  0.96299519  0.36733443  0.87153179    -0.95200
O1493       O  0.93138460  0.39671679  0.88035415    -0.93600
O1494       O  0.87384897  0.38045364  0.77678868    -0.93900
O1495       O  0.90921977  0.33788537  0.78182837    -0.92700
C1496       C  0.94742993  0.37921480  0.88705643     1.16300
H1497       H  0.89432984  0.42382758  0.79191831     0.32300
H1498       H  0.96271775  0.35777050  0.77299203     0.43100
H1499       H  0.97231084  0.41168461  0.86568524     0.36700
H1500       H  0.99559163  0.45726608  0.78525000     0.33100
H1501       H  0.91423926  0.35206480  0.72727131     0.24900
H1502       H  0.04690403  0.41354859  0.74643001     0.30900
H1503       H  0.05049962  0.45037800  0.83113900     0.36800
H1504       H  0.86852310  0.36727242  0.76396369     0.31200
H1505       H  0.88047379  0.38529972  0.82601919     0.30100
H1506       H  0.91430348  0.45048649  0.88515079     0.31800
H1507       H  0.00539199  0.45213586  0.88347051     0.30800
H1508       H  0.89769568  0.33879387  0.79710360     0.34800
H1509       H  0.95435511  0.31955693  0.82683972     0.27500
H1510       H  0.94633991  0.50603856  0.76794654     0.31700
H1511       H  0.98821013  0.49344936  0.83153687     0.34600
H1512       H  0.88080094  0.38621174  0.85616073     0.27200
H1513       H  0.97197565  0.32249537  0.85143108     0.40000
H1514       H  0.98824445  0.37956674  0.71284466     0.30100
H1515       H  0.94276968  0.36206435  0.72652547     0.37700
H1516       H  0.97613989  0.45797777  0.87825350     0.29600
H1517       H  0.04836612  0.40646729  0.77564586     0.29600
H1518       H  0.95264308  0.50181922  0.79734473     0.29900
Zr1519     Zr  0.06138721  0.19488415  0.77196414     2.17500
O1520       O  0.07868163  0.21138441  0.73163289    -0.52500
O1521       O  0.05374686  0.23336163  0.79742978    -0.75700
O1522       O  0.02720426  0.21345187  0.74810246    -0.82400
O1523       O  0.12743711  0.18952846  0.80160734    -0.84200
O1524       O  0.99334382  0.20202068  0.77232485    -0.79800
O1525       O  0.10094270  0.21779654  0.78122891    -0.91400
O1526       O  0.05034873  0.21924394  0.83864733    -0.77400
O1527       O  0.02475615  0.18521778  0.79861701    -0.86900
O1528       O  0.07764017  0.18199411  0.81265683    -0.86600
O1529       O  0.03551139  0.16254611  0.75046627    -0.73300
O1530       O  0.08929249  0.15974702  0.76189112    -0.85500
Zr1531     Zr  0.04748421  0.10513547  0.80976539     2.26400
Zr1532     Zr  0.99962173  0.15204423  0.77829447     2.06300
Zr1533     Zr  0.10608756  0.14742791  0.80294635     2.10000
Zr1534     Zr  0.04175081  0.17337345  0.83891901     1.78800
O1535       O  0.14375475  0.13886221  0.77579861    -0.94300
O1536       O  0.00257167  0.19647021  0.85131884    -0.42100
O1537       O  0.07084938  0.13799824  0.83173432    -0.78700
O1538       O  0.01754101  0.13946311  0.81902717    -0.97400
O1539       O  0.02846428  0.11700712  0.76994244    -0.90700
O1540       O  0.08240089  0.11464609  0.78161783    -0.93600
C1541       C  0.05206778  0.23710869  0.82185990     1.00200
C1542       C  0.12103208  0.21240409  0.79458797     1.13100
C1543       C  0.00658716  0.21973350  0.75981839     1.03900
O1544       O  0.95788173  0.15831586  0.79945082    -0.95700
O1545       O  0.98191131  0.10428084  0.78308766    -0.91500
O1546       O  0.00953653  0.08040601  0.80721924    -0.84600
C1547       C  0.98862172  0.08254587  0.79471235     1.10500
O1548       O  0.06553563  0.15151770  0.70225153    -0.97700
Zr1549     Zr  0.06334492  0.12696047  0.74202784     1.88900
O1550       O  0.05819787  0.06731759  0.78458768    -0.74300
O1551       O  0.97742558  0.14941455  0.73706214    -0.53600
O1552       O  0.03423444  0.10740719  0.71063245    -0.98300
O1553       O  0.10592403  0.12052874  0.72265176    -0.55500
O1554       O  0.06598347  0.08082037  0.74368958    -0.74900
C1555       C  0.06459068  0.06346987  0.76101175     0.97500
O1556       O  0.03320310  0.08574935  0.85002387    -0.63700
O1557       O  0.13229922  0.14973927  0.84181852    -0.58500
O1558       O  0.08314392  0.08450298  0.83043092    -0.95200
O1559       O  0.11975573  0.10579372  0.81952039    -0.93600
O1560       O  0.06723190  0.18028259  0.87782455    -0.93900
O1561       O  0.02421391  0.15024520  0.87537650    -0.92700
C1562       C  0.10771117  0.08676306  0.82957543     1.16300
H1563       H  0.08654800  0.19508382  0.82210631     0.32300
H1564       H  0.00396264  0.13364219  0.83037294     0.43100
H1565       H  0.09398614  0.10029764  0.77880865     0.36700
H1566       H  0.02890747  0.16862949  0.73407175     0.33100
H1567       H  0.00799247  0.20703234  0.86629720     0.24900
H1568       H  0.96800974  0.13288386  0.73757054     0.30900
H1569       H  0.02152376  0.09772332  0.72100769     0.36800
H1570       H  0.07105929  0.19891683  0.87843805     0.31200
H1571       H  0.14658005  0.16170084  0.83784510     0.30100
H1572       H  0.15481355  0.12735454  0.78614000     0.31800
H1573       H  0.10263495  0.11365750  0.70510256     0.30800
H1574       H  0.03403564  0.13390868  0.87564442     0.34800
H1575       H  0.03628150  0.06704589  0.84772481     0.27500
H1576       H  0.09482278  0.20149859  0.72858626     0.31700
H1577       H  0.06656501  0.13867543  0.68804640     0.34600
H1578       H  0.12134667  0.15916788  0.85447925     0.27200
H1579       H  0.04598599  0.09114930  0.86314503     0.40000
H1580       H  0.96208012  0.16653209  0.81623254     0.30100
H1581       H  0.99964903  0.20914508  0.83752853     0.37700
H1582       H  0.11347878  0.10585856  0.73203784     0.29600
H1583       H  0.96372877  0.16272934  0.73824719     0.29600
H1584       H  0.08450472  0.22911135  0.73560386     0.29900
Zr1585     Zr  0.48753199  0.96802641  0.33259381     2.17500
O1586       O  0.51396150  0.99834527  0.35717673    -0.52500
O1587       O  0.46286881  0.99810946  0.30629268    -0.75700
O1588       O  0.52179226  0.98260303  0.30648547    -0.82400
O1589       O  0.44852821  0.96656717  0.39372633    -0.84200
O1590       O  0.50565288  0.96904331  0.26913952    -0.79800
O1591       O  0.46923216  0.99387576  0.36671955    -0.91400
O1592       O  0.42248514  0.98205860  0.30828767    -0.77400
O1593       O  0.46970100  0.95236152  0.29278657    -0.86900
O1594       O  0.44530628  0.95279285  0.34244253    -0.86600
O1595       O  0.51708173  0.93481803  0.31703540    -0.73300
O1596       O  0.49515376  0.93718010  0.36542029    -0.85500
Zr1597     Zr  0.46090635  0.87335647  0.32343755     2.26400
Zr1598     Zr  0.49834543  0.91921962  0.27735059     2.06300
Zr1599     Zr  0.45244032  0.92307793  0.37591832     2.10000
Zr1600     Zr  0.42823902  0.93621333  0.30322183     1.78800
O1601       O  0.47107002  0.92406156  0.41893891    -0.94300
O1602       O  0.43044843  0.93639401  0.25617611    -0.42100
O1603       O  0.43206828  0.90633257  0.33777347    -0.78700
O1604       O  0.45609235  0.90282280  0.28830431    -0.97400
O1605       O  0.50303285  0.88724618  0.31035438    -0.90700
O1606       O  0.48029434  0.88929176  0.36169497    -0.93600
C1607       C  0.43854479  0.99932500  0.30161493     1.00200
C1608       C  0.45464336  0.98920435  0.38605320     1.13100
C1609       C  0.51537842  0.98770207  0.28373496     1.03900
O1610       O  0.48966043  0.92358357  0.23147224    -0.95700
O1611       O  0.49401180  0.87174889  0.25925200    -0.91500
O1612       O  0.47209918  0.84677910  0.28790981    -0.84600
C1613       C  0.48385289  0.84953283  0.26653446     1.10500
O1614       O  0.55905318  0.92951965  0.35990436    -0.97700
Zr1615     Zr  0.52198877  0.90269313  0.34909224     1.88900
O1616       O  0.48529958  0.83879767  0.34202832    -0.74300
O1617       O  0.54392208  0.91513207  0.26608894    -0.53600
O1618       O  0.56335274  0.88698976  0.33253039    -0.98300
O1619       O  0.52892253  0.89517618  0.39484555    -0.55500
O1620       O  0.52420017  0.85626231  0.35220249    -0.74900
C1621       C  0.50835530  0.83739231  0.35064191     0.97500
O1622       O  0.42413145  0.84998121  0.30572339    -0.63700
O1623       O  0.40809250  0.92644026  0.39158018    -0.58500
O1624       O  0.43570824  0.85464363  0.35774002    -0.95200
O1625       O  0.43662030  0.88233624  0.39200482    -0.93600
O1626       O  0.38416965  0.95223690  0.29832046    -0.93900
O1627       O  0.39296811  0.90538773  0.30153033    -0.92700
C1628       C  0.43122434  0.86057526  0.38138413     1.16300
H1629       H  0.43352337  0.96588839  0.34863913     0.32300
H1630       H  0.44848221  0.89397870  0.27367406     0.43100
H1631       H  0.48181099  0.87638257  0.37498144     0.36700
H1632       H  0.53438239  0.94085320  0.31354703     0.33100
H1633       H  0.41235215  0.93787830  0.25025481     0.24900
H1634       H  0.54716878  0.89635843  0.26562608     0.30900
H1635       H  0.57186982  0.87899387  0.34753530     0.36800
H1636       H  0.38220600  0.95593154  0.27975062     0.31200
H1637       H  0.40968455  0.93083619  0.41012518     0.30100
H1638       H  0.45600188  0.92379342  0.43076108     0.31800
H1639       H  0.51754863  0.90772965  0.40384372     0.30800
H1640       H  0.39681889  0.89465199  0.28608263     0.34800
H1641       H  0.42637034  0.83205647  0.31158778     0.27500
H1642       H  0.51057671  0.01544599  0.34970944     0.31700
H1643       H  0.55158811  0.94673252  0.36359492     0.34600
H1644       H  0.40121930  0.94226090  0.38362683     0.27200
H1645       H  0.40888209  0.85647675  0.31541906     0.40000
H1646       H  0.50044316  0.91017641  0.22296197     0.30100
H1647       H  0.43842780  0.95306173  0.25175324     0.37700
H1648       H  0.54667669  0.90119241  0.39852018     0.29600
H1649       H  0.54494549  0.92041536  0.24784198     0.29600
H1650       H  0.53219275  0.99433460  0.35277646     0.29900
Zr1651     Zr  0.53060205  0.71662934  0.30060376     2.17500
O1652       O  0.53764339  0.76297507  0.30385055    -0.52500
O1653       O  0.49419511  0.71221043  0.33084314    -0.75700
O1654       O  0.49716689  0.74026846  0.27951317    -0.82400
O1655       O  0.58839474  0.72316129  0.32472525    -0.84200
O1656       O  0.49123344  0.71853738  0.24162438    -0.79800
O1657       O  0.54995296  0.73356749  0.33942233    -0.91400
O1658       O  0.49335729  0.67050758  0.34310600    -0.77400
O1659       O  0.50468401  0.67942930  0.29297143    -0.86900
O1660       O  0.54973667  0.68359524  0.32614618    -0.86600
O1661       O  0.53571233  0.70689298  0.25512421    -0.73300
O1662       O  0.57440651  0.71157198  0.28391909    -0.85500
Zr1663     Zr  0.57051695  0.63202757  0.25911219     2.26400
Zr1664     Zr  0.50733596  0.67065563  0.24727084     2.06300
Zr1665     Zr  0.59311328  0.67916017  0.31043415     2.10000
Zr1666     Zr  0.52476494  0.64692167  0.31886402     1.78800
O1667       O  0.63492024  0.69884773  0.31872312    -0.94300
O1668       O  0.48344552  0.62421664  0.31537537    -0.42100
O1669       O  0.56876585  0.64047422  0.30461691    -0.78700
O1670       O  0.52768985  0.63944797  0.27478917    -0.97400
O1671       O  0.55099506  0.66321815  0.23139035    -0.90700
O1672       O  0.59612792  0.66926750  0.26540382    -0.93600
C1673       C  0.48469344  0.69346117  0.34379074     1.00200
C1674       C  0.57355077  0.72822292  0.34369423     1.13100
C1675       C  0.49054321  0.73988470  0.25589816     1.03900
O1676       O  0.46110467  0.66655273  0.25494956    -0.95700
O1677       O  0.50168737  0.62107363  0.23749918    -0.91500
O1678       O  0.54073619  0.60045335  0.24147265    -0.84600
C1679       C  0.51616167  0.59990609  0.23791193     1.10500
O1680       O  0.57716174  0.74622958  0.23108673    -0.97700
Zr1681     Zr  0.57783664  0.70002658  0.23853819     1.88900
O1682       O  0.59278629  0.63191773  0.21834250    -0.74300
O1683       O  0.49549847  0.67073203  0.20187510    -0.53600
O1684       O  0.55931801  0.70892983  0.19648396    -0.98300
O1685       O  0.62036210  0.72024454  0.23737101    -0.55500
O1686       O  0.60510278  0.67273830  0.21012953    -0.74900
C1687       C  0.60626690  0.64829510  0.20591057     0.97500
O1688       O  0.57492751  0.58590962  0.26527206    -0.63700
O1689       O  0.59660403  0.66047393  0.35313556    -0.58500
O1690       O  0.61529562  0.62270099  0.27153482    -0.95200
O1691       O  0.62968077  0.65225793  0.30079371    -0.93600
O1692       O  0.53688386  0.63976312  0.36365822    -0.93900
O1693       O  0.53020168  0.60111193  0.32688667    -0.92700
C1694       C  0.63302684  0.63289800  0.28573334     1.16300
H1695       H  0.54882210  0.68670881  0.34449075     0.32300
H1696       H  0.51890354  0.62346011  0.27665833     0.43100
H1697       H  0.61365697  0.66776039  0.25932684     0.36700
H1698       H  0.53315087  0.72220998  0.24560425     0.33100
H1699       H  0.47018714  0.63784469  0.31353916     0.24900
H1700       H  0.51108646  0.67692265  0.19277369     0.30900
H1701       H  0.54093556  0.71308405  0.19997857     0.36800
H1702       H  0.53262256  0.65587649  0.37312219     0.31200
H1703       H  0.59730289  0.64168505  0.34986297     0.30100
H1704       H  0.63943562  0.70729616  0.30229949     0.31800
H1705       H  0.62239303  0.72635395  0.21946429     0.30800
H1706       H  0.51773917  0.59703625  0.34078365     0.34800
H1707       H  0.59140370  0.58124484  0.25663281     0.27500
H1708       H  0.52091401  0.77071002  0.30923352     0.31700
H1709       H  0.57717765  0.75412374  0.24855506     0.34600
H1710       H  0.61428858  0.66484794  0.35889735     0.27200
H1711       H  0.57834018  0.58392693  0.28391195     0.40000
H1712       H  0.45317957  0.68006068  0.24421309     0.30100
H1713       H  0.48331500  0.61510428  0.29853421     0.37700
H1714       H  0.63296441  0.70595400  0.23868582     0.29600
H1715       H  0.49423940  0.65235045  0.19688616     0.29600
H1716       H  0.54044671  0.76876055  0.28595936     0.29900
Zr1717     Zr  0.51585319  0.46289929  0.17942985     2.17500
O1718       O  0.48060979  0.48450923  0.15716179    -0.52500
O1719       O  0.54027050  0.49759061  0.19954254    -0.75700
O1720       O  0.48729687  0.48013989  0.21139861    -0.82400
O1721       O  0.54646232  0.45697524  0.11470194    -0.84200
O1722       O  0.50880167  0.46858881  0.24654885    -0.79800
O1723       O  0.52960477  0.48690604  0.14247454    -0.91400
O1724       O  0.58139063  0.48416239  0.19406005    -0.77400
O1725       O  0.53953382  0.45141776  0.21727544    -0.86900
O1726       O  0.55781521  0.44934287  0.16532556    -0.86600
O1727       O  0.49130657  0.42975868  0.20067892    -0.73300
O1728       O  0.50773405  0.42793037  0.15021271    -0.85500
Zr1729     Zr  0.55192837  0.37103712  0.19293484     2.26400
Zr1730     Zr  0.51559356  0.41853787  0.23878257     2.06300
Zr1731     Zr  0.55005187  0.41518340  0.13587525     2.10000
Zr1732     Zr  0.58118205  0.43855975  0.20264926     1.78800
O1733       O  0.52515419  0.40108996  0.09862570    -0.94300
O1734       O  0.59317578  0.45584456  0.24472915    -0.42100
O1735       O  0.57577923  0.40405803  0.17249281    -0.78700
O1736       O  0.55801098  0.40518078  0.22407687    -0.97400
O1737       O  0.51027885  0.38309632  0.20912118    -0.90700
O1738       O  0.52715496  0.38148154  0.15597486    -0.93600
C1739       C  0.56471288  0.50066468  0.20178990     1.00200
C1740       C  0.54129662  0.48036331  0.12156608     1.13100
C1741       C  0.49710858  0.48650341  0.23284606     1.03900
O1742       O  0.53282798  0.42293161  0.28220642    -0.95700
O1743       O  0.51929758  0.37118604  0.25696754    -0.91500
O1744       O  0.54302382  0.34596092  0.22936732    -0.84600
C1745       C  0.53041750  0.34895728  0.25025814     1.10500
O1746       O  0.44480850  0.41249630  0.15910169    -0.97700
Zr1747     Zr  0.48584858  0.39374008  0.17230477     1.88900
O1748       O  0.52879759  0.33398939  0.17723849    -0.74300
O1749       O  0.47215249  0.41807724  0.25709056    -0.53600
O1750       O  0.45242526  0.38599439  0.20446248    -0.98300
O1751       O  0.46734679  0.37942363  0.13137846    -0.55500
O1752       O  0.48718519  0.34705165  0.17227764    -0.74900
C1753       C  0.50515152  0.32994239  0.17138165     0.97500
O1754       O  0.58928149  0.35054623  0.21285436    -0.63700
O1755       O  0.58848223  0.42139966  0.10927301    -0.58500
O1756       O  0.57917788  0.35199432  0.15974304    -0.95200
O1757       O  0.57463886  0.37657967  0.12411505    -0.93600
O1758       O  0.62181068  0.44845131  0.18112865    -0.93900
O1759       O  0.61848723  0.41251375  0.21425272    -0.92700
C1760       C  0.58328353  0.35666956  0.13586228     1.16300
H1761       H  0.56797688  0.46226353  0.15677455     0.32300
H1762       H  0.56784443  0.39909383  0.23860632     0.43100
H1763       H  0.52582724  0.36746467  0.14366893     0.36700
H1764       H  0.47426318  0.43582525  0.20558677     0.33100
H1765       H  0.60538271  0.46994735  0.24094185     0.24900
H1766       H  0.46992526  0.40036535  0.26350689     0.30900
H1767       H  0.45439024  0.36765353  0.20897845     0.36800
H1768       H  0.62965119  0.46227992  0.19177501     0.31200
H1769       H  0.58259836  0.43052640  0.09370874     0.30100
H1770       H  0.53387361  0.40911148  0.08373718     0.31800
H1771       H  0.47839600  0.36490055  0.12549603     0.30800
H1772       H  0.61474798  0.40645241  0.23188457     0.34800
H1773       H  0.60430529  0.35515214  0.20198846     0.27500
H1774       H  0.48286832  0.50307466  0.16083327     0.31700
H1775       H  0.44952396  0.42909785  0.15123151     0.34600
H1776       H  0.59893651  0.43417278  0.11891802     0.27200
H1777       H  0.59214432  0.36013369  0.22918796     0.40000
H1778       H  0.52722371  0.44024866  0.28811544     0.30100
H1779       H  0.57743351  0.46462261  0.25132161     0.37700
H1780       H  0.47127400  0.39334741  0.11912032     0.29600
H1781       H  0.47335831  0.42890827  0.27286262     0.29600
H1782       H  0.46466130  0.47968911  0.16652511     0.29900
Zr1783     Zr  0.44706039  0.13556737  0.25090058     2.17500
O1784       O  0.43065000  0.09165002  0.24676218    -0.52500
O1785       O  0.42084396  0.14050010  0.28994332    -0.75700
O1786       O  0.47471050  0.10275541  0.26956849    -0.82400
O1787       O  0.39679465  0.15700653  0.19991668    -0.84200
O1788       O  0.51304173  0.12168546  0.28084019    -0.79800
O1789       O  0.40607826  0.12661520  0.22962582    -0.91400
O1790       O  0.40682370  0.18171194  0.29171687    -0.77400
O1791       O  0.46435136  0.16696722  0.28021645    -0.86900
O1792       O  0.42435174  0.17376681  0.24045561    -0.86600
O1793       O  0.49226966  0.13994777  0.24064637    -0.73300
O1794       O  0.45566574  0.14262492  0.20583866    -0.85500
Zr1795     Zr  0.49646357  0.21660049  0.21363030     2.26400
Zr1796     Zr  0.51018036  0.17116603  0.27022111     2.06300
Zr1797     Zr  0.43430540  0.18252059  0.19636107     2.10000
Zr1798     Zr  0.44061715  0.20484296  0.26881666     1.78800
O1799       O  0.42983553  0.16423265  0.15314567    -0.94300
O1800       O  0.45124726  0.21238110  0.31403164    -0.42100
O1801       O  0.45070030  0.21515762  0.22443120    -0.78700
O1802       O  0.48473077  0.20821171  0.25791645    -0.97400
O1803       O  0.51943994  0.17842808  0.22525425    -0.90700
O1804       O  0.47933275  0.18321864  0.18654213    -0.93600
C1805       C  0.40565461  0.15820851  0.29876318     1.00200
C1806       C  0.39123040  0.13722210  0.21295764     1.13100
C1807       C  0.49822276  0.10111353  0.27730510     1.03900
O1808       O  0.51402449  0.17262551  0.31696872    -0.95700
O1809       O  0.52641584  0.21865510  0.27752390    -0.91500
O1810       O  0.53115830  0.23562163  0.23783970    -0.84600
C1811       C  0.53089002  0.23841532  0.26227874     1.10500
O1812       O  0.50150054  0.09900054  0.19565701    -0.97700
Zr1813     Zr  0.50139917  0.14590207  0.19744274     1.88900
O1814       O  0.53176565  0.21096332  0.18258080    -0.74300
O1815       O  0.55689192  0.16529937  0.26808327    -0.53600
O1816       O  0.54281380  0.12402731  0.20206658    -0.98300
O1817       O  0.49050814  0.13527844  0.15285761    -0.55500
O1818       O  0.53310976  0.16827622  0.17290003    -0.74900
C1819       C  0.54079885  0.19134184  0.17013938     0.97500
O1820       O  0.49191907  0.26319323  0.21618949    -0.63700
O1821       O  0.39601412  0.20775870  0.18590353    -0.58500
O1822       O  0.48447653  0.23127348  0.17114453    -0.95200
O1823       O  0.44385591  0.22483804  0.18080782    -0.93600
O1824       O  0.40043633  0.22830328  0.26206259    -0.93900
O1825       O  0.44347089  0.25049420  0.27920400    -0.92700
C1826       C  0.46135069  0.22740648  0.16383557     1.16300
H1827       H  0.40597606  0.17291246  0.24372953     0.32300
H1828       H  0.48629007  0.22406193  0.26777846     0.43100
H1829       H  0.48279549  0.18492487  0.16837966     0.36700
H1830       H  0.50176747  0.12389286  0.23940377     0.33100
H1831       H  0.43456394  0.21708371  0.32228408     0.24900
H1832       H  0.55932762  0.14826259  0.25969329     0.30900
H1833       H  0.55287603  0.13522780  0.21384267     0.36800
H1834       H  0.39240526  0.21982845  0.24692304     0.31200
H1835       H  0.38783608  0.19855982  0.17125901     0.30100
H1836       H  0.44741639  0.16426769  0.14558659     0.31800
H1837       H  0.48397866  0.11741710  0.15306589     0.30800
H1838       H  0.44674716  0.25875176  0.26240335     0.34800
H1839       H  0.50542098  0.26988002  0.20448675     0.27500
H1840       H  0.43053808  0.08423960  0.26426077     0.31700
H1841       H  0.48373787  0.09406566  0.20073294     0.34600
H1842       H  0.38395329  0.20545608  0.20055926     0.27200
H1843       H  0.47536228  0.26707144  0.20752648     0.40000
H1844       H  0.50626980  0.18936820  0.32207980     0.30100
H1845       H  0.45536527  0.19522438  0.32102668     0.37700
H1846       H  0.50733703  0.13404096  0.14374997     0.29600
H1847       H  0.56283592  0.17775324  0.25505288     0.29600
H1848       H  0.44390880  0.08179445  0.23694387     0.29900
Zr1849     Zr  0.12710080  0.28627437  0.93725616     2.17500
O1850       O  0.08603754  0.27912569  0.91531615    -0.52500
O1851       O  0.13424463  0.27688363  0.89125298    -0.75700
O1852       O  0.10016900  0.32356830  0.93126219    -0.82400
O1853       O  0.12959584  0.22419698  0.97490736    -0.84200
O1854       O  0.12209777  0.36011830  0.94080049    -0.79800
O1855       O  0.10180493  0.25070536  0.95396249    -0.91400
O1856       O  0.17595913  0.28459637  0.88021678    -0.77400
O1857       O  0.15666273  0.31984365  0.92837571    -0.86900
O1858       O  0.16626718  0.26318958  0.92869240    -0.86600
O1859       O  0.12767625  0.31298415  0.97579800    -0.73300
O1860       O  0.13973892  0.26513213  0.97541309    -0.85500
Zr1861     Zr  0.20923638  0.29938028  0.99508533     2.26400
Zr1862     Zr  0.15861321  0.34584181  0.96697688     2.06300
Zr1863     Zr  0.17680568  0.23983403  0.96712753     2.10000
Zr1864     Zr  0.19604873  0.29762471  0.91994042     1.78800
O1865       O  0.18553326  0.20631677  0.99832551    -0.94300
O1866       O  0.19820579  0.33558191  0.89290550    -0.42100
O1867       O  0.20561241  0.27385015  0.95732536    -0.78700
O1868       O  0.19900893  0.32463937  0.95777636    -0.97400
O1869       O  0.17052451  0.32230203  0.00454594    -0.90700
O1870       O  0.17972791  0.26597286  0.00549241    -0.93600
C1871       C  0.15302166  0.27729907  0.87490871     1.00200
C1872       C  0.10602202  0.23111331  0.96812048     1.13100
C1873       C  0.10265173  0.34802787  0.93124026     1.03900
O1874       O  0.17410734  0.38270038  0.94295272    -0.95700
O1875       O  0.18827935  0.37170943  0.99336424    -0.91500
O1876       O  0.21735605  0.34262247  0.00775877    -0.84600
C1877       C  0.20852392  0.36543500  0.00628086     1.10500
O1878       O  0.09393199  0.28776855  0.02074006    -0.97700
Zr1879     Zr  0.14054944  0.28977289  0.01398616     1.88900
O1880       O  0.20822663  0.29008249  0.04059482    -0.74300
O1881       O  0.12856013  0.37001072  0.99437582    -0.53600
O1882       O  0.12569340  0.32655396  0.03960072    -0.98300
O1883       O  0.12824283  0.25039326  0.03574798    -0.55500
O1884       O  0.16620860  0.29159283  0.05293007    -0.74900
C1885       C  0.19046077  0.29082794  0.05787456     0.97500
O1886       O  0.25255460  0.31458783  0.00616035    -0.63700
O1887       O  0.17560276  0.20456374  0.93581017    -0.58500
O1888       O  0.24468348  0.27091318  0.98314000    -0.95200
O1889       O  0.22700836  0.23628973  0.96279711    -0.93600
O1890       O  0.22467904  0.26570338  0.90022436    -0.93900
O1891       O  0.24098317  0.31107232  0.91649746    -0.92700
C1892       C  0.24718173  0.24999373  0.97010911     1.16300
H1893       H  0.16502692  0.25083929  0.91479360     0.32300
H1894       H  0.21214027  0.33753624  0.95520589     0.43100
H1895       H  0.18505333  0.25528101  0.01966011     0.36700
H1896       H  0.11093156  0.32069149  0.97888010     0.33100
H1897       H  0.21008159  0.33069133  0.87863823     0.24900
H1898       H  0.13821600  0.37354917  0.01045998     0.30900
H1899       H  0.12238098  0.31965521  0.05701108     0.36800
H1900       H  0.21583182  0.24909238  0.90295362     0.31200
H1901       H  0.15786217  0.20504594  0.92870744     0.30100
H1902       H  0.20353968  0.20081337  0.99470699     0.31800
H1903       H  0.12027284  0.25623715  0.05219496     0.30800
H1904       H  0.24626414  0.31536928  0.93435150     0.34800
H1905       H  0.26051652  0.30133338  0.01718204     0.27500
H1906       H  0.08621119  0.26088623  0.90962076     0.31700
H1907       H  0.08622971  0.29048089  0.00354183     0.34600
H1908       H  0.18685076  0.21011411  0.92143444     0.27200
H1909       H  0.26283155  0.31456121  0.98999691     0.40000
H1910       H  0.16190469  0.39676847  0.94750310     0.30100
H1911       H  0.18100707  0.33678933  0.88468014     0.37700
H1912       H  0.14477179  0.24236403  0.04094578     0.29600
H1913       H  0.12690227  0.38699046  0.98609379     0.29600
H1914       H  0.07244422  0.28021876  0.92879074     0.29900
Zr1915     Zr  0.97038464  0.26036945  0.94084604     2.17500
O1916       O  0.01742926  0.26356702  0.94273800    -0.52500
O1917       O  0.96597087  0.30429519  0.95548945    -0.75700
O1918       O  0.98905588  0.28023302  0.90333678    -0.82400
O1919       O  0.97714095  0.21524405  0.99173601    -0.84200
O1920       O  0.97005619  0.26242359  0.86803156    -0.79800
O1921       O  0.99609057  0.25180328  0.97864039    -0.91400
O1922       O  0.92290192  0.31201838  0.95667674    -0.77400
O1923       O  0.93615041  0.27320796  0.91311905    -0.86900
O1924       O  0.93412638  0.26329815  0.96965961    -0.86600
O1925       O  0.96742438  0.22757816  0.90770902    -0.73300
O1926       O  0.96269555  0.21836361  0.95645409    -0.85500
Zr1927     Zr  0.88995251  0.19976043  0.92536761     2.26400
Zr1928     Zr  0.93125470  0.23978949  0.88106067     2.06300
Zr1929     Zr  0.92704566  0.22076960  0.98518422     2.10000
Zr1930     Zr  0.89976659  0.27465201  0.94111055     1.78800
O1931       O  0.91892896  0.18520757  0.01446807    -0.94300
O1932       O  0.89243902  0.30830903  0.90903387    -0.42100
O1933       O  0.89913545  0.23257607  0.95392738    -0.78700
O1934       O  0.89318275  0.24248546  0.90771283    -0.97400
O1935       O  0.92666941  0.19727588  0.89785418    -0.90700
O1936       O  0.92372314  0.18652682  0.95378661    -0.93600
C1937       C  0.94647991  0.31923698  0.95872916     1.00200
C1938       C  0.99794588  0.22957932  0.98857554     1.13100
C1939       C  0.98762921  0.27599017  0.87907302     1.03900
O1940       O  0.89951215  0.26900473  0.86269558    -0.95700
O1941       O  0.91326364  0.20243388  0.85757861    -0.91500
O1942       O  0.87684019  0.20111473  0.88045425    -0.84600
C1943       C  0.89098616  0.19255012  0.86204533     1.10500
O1944       O  0.00631951  0.17825508  0.91567922    -0.97700
Zr1945     Zr  0.96073329  0.18532719  0.92503046     1.88900
O1946       O  0.89743148  0.15308283  0.92327109    -0.74300
O1947       O  0.94494520  0.24240575  0.83612768    -0.53600
O1948       O  0.96610232  0.16848073  0.88129669    -0.98300
O1949       O  0.98781594  0.16314312  0.95609142    -0.55500
O1950       O  0.94021988  0.14416409  0.92571025    -0.74900
C1951       C  0.91661875  0.13729032  0.92426122     0.97500
O1952       O  0.84560390  0.18328647  0.92416545    -0.63700
O1953       O  0.93084237  0.24187943  0.02731016    -0.58500
O1954       O  0.85661721  0.20608514  0.95713871    -0.95200
O1955       O  0.87690760  0.22869050  0.98879038    -0.93600
O1956       O  0.87457912  0.28967301  0.97811812    -0.93900
O1957       O  0.85292145  0.27935534  0.94002986    -0.92700
C1958       C  0.85568635  0.22143120  0.97652313     1.16300
H1959       H  0.93659044  0.27512146  0.98391272     0.32300
H1960       H  0.87774781  0.24656438  0.89815200     0.43100
H1961       H  0.92048337  0.17055442  0.96245572     0.36700
H1962       H  0.98326059  0.22718834  0.89778140     0.33100
H1963       H  0.88503721  0.32302132  0.91892679     0.24900
H1964       H  0.95228554  0.22526832  0.83182483     0.30900
H1965       H  0.96429913  0.14959673  0.88255476     0.36800
H1966       H  0.88717036  0.29815466  0.98972929     0.31200
H1967       H  0.94421347  0.25526921  0.02510843     0.30100
H1968       H  0.90553207  0.17460290  0.00592744     0.31800
H1969       H  0.98807646  0.14494219  0.95025875     0.30800
H1970       H  0.84890076  0.28657310  0.92293106     0.34800
H1971       H  0.83825482  0.18828296  0.90734985     0.27500
H1972       H  0.02185014  0.28154784  0.93849791     0.31700
H1973       H  0.01308511  0.19507015  0.91009153     0.34600
H1974       H  0.91445429  0.25155913  0.02953583     0.27200
H1975       H  0.84702650  0.16430612  0.92325622     0.40000
H1976       H  0.90863502  0.28565864  0.86157556     0.30100
H1977       H  0.90976689  0.31440142  0.90374294     0.37700
H1978       H  0.97741668  0.16309039  0.97215365     0.29600
H1979       H  0.92875561  0.24338774  0.82606676     0.29600
H1980       H  0.02399649  0.25290975  0.92817148     0.29900
Zr1981     Zr  0.62214701  0.22988117  0.02839310     2.17500
O1982       O  0.57617924  0.22432669  0.01944908    -0.52500
O1983       O  0.61751172  0.26436293  0.05994819    -0.75700
O1984       O  0.60115202  0.21047035  0.06462448    -0.82400
O1985       O  0.62963999  0.26077776  0.96748471    -0.84200
O1986       O  0.62470932  0.17604451  0.07776309    -0.79800
O1987       O  0.60417897  0.26371279  0.00274520    -0.91400
O1988       O  0.65555557  0.26794045  0.08136185    -0.77400
O1989       O  0.65033841  0.21156769  0.05881515    -0.86900
O1990       O  0.65900267  0.25757302  0.02783941    -0.86600
O1991       O  0.62968744  0.18583516  0.01506886    -0.73300
O1992       O  0.63953965  0.22710019  0.98568676    -0.85500
Zr1993     Zr  0.71314783  0.19392915  0.00290758     2.26400
Zr1994     Zr  0.65946311  0.16820651  0.04587540     2.06300
Zr1995     Zr  0.67618219  0.25497222  0.98467907     2.10000
Zr1996     Zr  0.68627507  0.23884878  0.05987819     1.78800
O1997       O  0.68178915  0.27361041  0.94219806    -0.94300
O1998       O  0.68087488  0.22570010  0.10456425    -0.42100
O1999       O  0.70259107  0.23652739  0.01701229    -0.78700
O2000       O  0.69727026  0.19496642  0.04690961    -0.97400
O2001       O  0.67614138  0.16715956  0.00289249    -0.90700
O2002       O  0.68514838  0.21195429  0.97106947    -0.93600
C2003       C  0.63198684  0.27459753  0.07724898     1.00200
C2004       C  0.60690441  0.26434784  0.97836681     1.13100
C2005       C  0.60605014  0.19247315  0.08051530     1.03900
O2006       O  0.67990042  0.15355845  0.08533407    -0.95700
O2007       O  0.68771029  0.13306214  0.02873260    -0.91500
O2008       O  0.72432974  0.15532117  0.02540653    -0.84600
C2009       C  0.71176636  0.13452009  0.02227697     1.10500
O2010       O  0.60204965  0.17508817  0.96585745    -0.97700
Zr2011     Zr  0.64784395  0.18433240  0.97212776     1.88900
O2012       O  0.71920728  0.17606182  0.95923850    -0.74300
O2013       O  0.63086827  0.13108576  0.04625736    -0.53600
O2014       O  0.64163367  0.13815684  0.96704527    -0.98300
O2015       O  0.63581843  0.20043144  0.92986452    -0.55500
O2016       O  0.67963935  0.16802369  0.94218574    -0.74900
C2017       C  0.70436077  0.16797992  0.94102789     0.97500
O2018       O  0.75986950  0.18853234  0.99689440    -0.63700
O2019       O  0.67963576  0.30011370  0.99737056    -0.58500
O2020       O  0.73900074  0.23123868  0.01011677    -0.95200
O2021       O  0.72619808  0.25458866  0.97680772    -0.93600
O2022       O  0.71082999  0.27869360  0.06024858    -0.93900
O2023       O  0.72903541  0.23764635  0.07933923    -0.92700
C2024       C  0.74483909  0.24531286  0.99121997     1.16300
H2025       H  0.65471874  0.27526332  0.03173395     0.32300
H2026       H  0.70991351  0.18811333  0.05864665     0.43100
H2027       H  0.69263425  0.21365753  0.95412741     0.36700
H2028       H  0.61365127  0.17633708  0.01565195     0.33100
H2029       H  0.66223647  0.22186623  0.10661383     0.24900
H2030       H  0.63557832  0.12101945  0.03061491     0.30900
H2031       H  0.64124911  0.13151027  0.98483675     0.36800
H2032       H  0.70389625  0.28865768  0.07513166     0.31200
H2033       H  0.69000107  0.30806775  0.98352008     0.30100
H2034       H  0.68962135  0.25963219  0.93162393     0.31800
H2035       H  0.65002632  0.21221203  0.92513843     0.30800
H2036       H  0.73882329  0.22469206  0.06908966     0.34800
H2037       H  0.76528598  0.17378237  0.00746685     0.27500
H2038       H  0.57237571  0.20609102  0.02315843     0.31700
H2039       H  0.60039895  0.16923998  0.94771432     0.34600
H2040       H  0.66199902  0.30718801  0.99512295     0.27200
H2041       H  0.76273385  0.18287951  0.97882061     0.40000
H2042       H  0.66630699  0.14365425  0.09428462     0.30100
H2043       H  0.68948808  0.20870412  0.10544443     0.37700
H2044       H  0.62082080  0.21191317  0.93304265     0.29600
H2045       H  0.63713890  0.12051864  0.06071635     0.29600
H2046       H  0.56710347  0.23420698  0.03321363     0.29900
Zr2047     Zr  0.38485350  0.30452372  0.00980901     2.17500
O2048       O  0.35011168  0.32396232  0.98498608    -0.52500
O2049       O  0.39253669  0.35086888  0.00893408    -0.75700
O2050       O  0.35862062  0.31993771  0.04627070    -0.82400
O2051       O  0.37977803  0.25229999  0.95903751    -0.84200
O2052       O  0.38685106  0.32060456  0.07958205    -0.79800
O2053       O  0.35537631  0.28192030  0.98116305    -0.91400
O2054       O  0.43441359  0.35753898  0.01937337    -0.77400
O2055       O  0.41967610  0.31877189  0.03543734    -0.86900
O2056       O  0.42147955  0.30387046  0.98100866    -0.86600
O2057       O  0.38623708  0.27418641  0.04468091    -0.73300
O2058       O  0.39394622  0.26120949  0.99794656    -0.85500
Zr2059     Zr  0.46793319  0.24673194  0.03232335     2.26400
Zr2060     Zr  0.42107536  0.29020390  0.07019004     2.06300
Zr2061     Zr  0.42871350  0.25918178  0.96894367     2.10000
Zr2062     Zr  0.45639242  0.31837370  0.00808270     1.78800
O2063       O  0.43078860  0.21853499  0.94519674    -0.94300
O2064       O  0.48617899  0.35170143  0.02290811    -0.42100
O2065       O  0.46166528  0.27473076  0.99672772    -0.78700
O2066       O  0.46052311  0.29143036  0.04526144    -0.97400
O2067       O  0.42890533  0.24710531  0.05717404    -0.90700
O2068       O  0.43429166  0.22999751  0.00457064    -0.93600
C2069       C  0.41107468  0.36509113  0.01724350     1.00200
C2070       C  0.35727592  0.26273275  0.96542852     1.13100
C2071       C  0.36531365  0.32687163  0.06917581     1.03900
O2072       O  0.44442956  0.32052595  0.09753884    -0.95700
O2073       O  0.44710193  0.26026818  0.09301507    -0.91500
O2074       O  0.48556933  0.25949503  0.07438389    -0.84600
C2075       C  0.47136379  0.26320260  0.09435701     1.10500
O2076       O  0.34906637  0.22733345  0.02411302    -0.97700
Zr2077     Zr  0.39549736  0.23026998  0.03071612     1.88900
O2078       O  0.45600834  0.20254357  0.04196964    -0.74300
O2079       O  0.39417189  0.27909072  0.10701952    -0.53600
O2080       O  0.36889096  0.21967071  0.06791816    -0.98300
O2081       O  0.38972054  0.19586699  0.99884686    -0.55500
O2082       O  0.41574279  0.19488972  0.05294657    -0.74900
C2083       C  0.43941699  0.19679263  0.05924614     0.97500
O2084       O  0.50923157  0.22448239  0.03771895    -0.63700
O2085       O  0.42881115  0.27960935  0.92690053    -0.58500
O2086       O  0.49918981  0.24703132  0.99680472    -0.95200
O2087       O  0.47782231  0.25828888  0.96014777    -0.93600
O2088       O  0.46269266  0.33405082  0.96442217    -0.93900
O2089       O  0.50329417  0.31355923  0.00816215    -0.92700
C2090       C  0.49914708  0.25314621  0.97283764     1.16300
H2091       H  0.41838213  0.31467732  0.96629548     0.32300
H2092       H  0.47424235  0.29874259  0.05549175     0.43100
H2093       H  0.43853293  0.21296425  0.99814944     0.36700
H2094       H  0.37034322  0.27423549  0.05452936     0.33100
H2095       H  0.48285287  0.36679077  0.01190836     0.24900
H2096       H  0.39696558  0.26044241  0.10942209     0.30900
H2097       H  0.36583919  0.20092191  0.06642617     0.36800
H2098       H  0.45957749  0.35281356  0.96586628     0.31200
H2099       H  0.43906536  0.26797080  0.91557182     0.30100
H2100       H  0.43614924  0.22312248  0.92751014     0.31800
H2101       H  0.39206597  0.20423742  0.98196146     0.30800
H2102       H  0.50745590  0.30315951  0.02346957     0.34800
H2103       H  0.51131575  0.22179129  0.05644507     0.27500
H2104       H  0.35893276  0.33303980  0.97077389     0.31700
H2105       H  0.34318604  0.24538691  0.02258115     0.34600
H2106       H  0.41082689  0.27787106  0.92066397     0.27200
H2107       H  0.50652910  0.20699777  0.03048419     0.40000
H2108       H  0.43979984  0.33766030  0.09079946     0.30100
H2109       H  0.47998308  0.35689198  0.04030118     0.37700
H2110       H  0.37118222  0.19126938  0.99937748     0.29600
H2111       H  0.40246237  0.28742462  0.12208665     0.29600
H2112       H  0.34306319  0.33785629  0.99620693     0.29900
Zr2113     Zr  0.53467403  0.10613401  0.68557493     2.17500
O2114       O  0.55554674  0.06437316  0.69107734    -0.52500
O2115       O  0.58077935  0.11512533  0.69371539    -0.75700
O2116       O  0.54459409  0.09179919  0.64242082    -0.82400
O2117       O  0.49377134  0.09246063  0.74447209    -0.84200
O2118       O  0.54888464  0.12844792  0.62094108    -0.79800
O2119       O  0.51746160  0.07258302  0.71291882    -0.91400
O2120       O  0.58702007  0.15819655  0.69429350    -0.77400
O2121       O  0.54293001  0.14355595  0.66122545    -0.86900
O2122       O  0.53807866  0.13977774  0.71711714    -0.86600
O2123       O  0.49866207  0.10974268  0.65581487    -0.73300
O2124       O  0.49340524  0.11102689  0.70512094    -0.85500
Zr2125     Zr  0.46888253  0.18486714  0.68592775     2.26400
Zr2126     Zr  0.50719494  0.14840280  0.63259094     2.06300
Zr2127     Zr  0.49633218  0.14221026  0.73837083     2.10000
Zr2128     Zr  0.54559535  0.17755403  0.69111524     1.78800
O2129       O  0.45956804  0.14428398  0.76782602    -0.94300
O2130       O  0.56915717  0.19362515  0.65371294    -0.42100
O2131       O  0.50522282  0.17737833  0.71168749    -0.78700
O2132       O  0.50958074  0.18410207  0.66277423    -0.97400
O2133       O  0.46588022  0.15220989  0.65359979    -0.90700
O2134       O  0.45947962  0.14745467  0.71033499    -0.93600
C2135       C  0.59526757  0.13519925  0.69543832     1.00200
C2136       C  0.50240038  0.07150585  0.73258297     1.13100
C2137       C  0.55728700  0.10604292  0.62715585     1.03900
O2138       O  0.52482870  0.17016130  0.59509810    -0.95700
O2139       O  0.48143675  0.18231034  0.61323585    -0.91500
O2140       O  0.46076217  0.20414828  0.64537457    -0.84600
C2141       C  0.46690167  0.20064218  0.62180680     1.10500
O2142       O  0.45217372  0.06878667  0.66970948    -0.97700
Zr2143     Zr  0.45725581  0.11477512  0.67707731     1.88900
O2144       O  0.42297182  0.17776784  0.68848413    -0.74300
O2145       O  0.48916123  0.11747888  0.60194723    -0.53600
O2146       O  0.44227143  0.10538663  0.63347096    -0.98300
O2147       O  0.43090404  0.09130750  0.70777440    -0.55500
O2148       O  0.41639724  0.13752856  0.67301614    -0.74900
C2149       C  0.40837479  0.16001747  0.67959125     0.97500
O2150       O  0.45754787  0.23046643  0.68935195    -0.63700
O2151       O  0.52127482  0.13858715  0.77785688    -0.58500
O2152       O  0.46993334  0.21148809  0.72466054    -0.95200
O2153       O  0.50087457  0.19163011  0.74763193    -0.93600
O2154       O  0.55881664  0.19588275  0.73239276    -0.93900
O2155       O  0.55410359  0.22360569  0.69214942    -0.92700
C2156       C  0.48875652  0.21275233  0.74048193     1.16300
H2157       H  0.55175672  0.13678527  0.72947285     0.32300
H2158       H  0.51203453  0.20002861  0.65367128     0.43100
H2159       H  0.44363072  0.14884088  0.72018333     0.36700
H2160       H  0.49781550  0.09495579  0.64439581     0.33100
H2161       H  0.58714541  0.19611972  0.65967862     0.24900
H2162       H  0.48183396  0.12804660  0.58799342     0.30900
H2163       H  0.42392603  0.10038392  0.63549836     0.36800
H2164       H  0.57553299  0.18746118  0.73625758     0.31200
H2165       H  0.51401357  0.15210114  0.78941169     0.30100
H2166       H  0.46312851  0.13081723  0.78068155     0.31800
H2167       H  0.41282652  0.09560011  0.70325469     0.30800
H2168       H  0.54555981  0.23056231  0.67664888     0.34800
H2169       H  0.46945730  0.23966368  0.67766759     0.27500
H2170       H  0.57415288  0.06704501  0.68754213     0.31700
H2171       H  0.46381623  0.06440103  0.65509998     0.34600
H2172       H  0.51552443  0.12222525  0.78554113     0.27200
H2173       H  0.44022388  0.23218901  0.68147783     0.40000
H2174       H  0.51775535  0.16073210  0.58002004     0.30100
H2175       H  0.57026403  0.17904876  0.64131039     0.37700
H2176       H  0.43381623  0.10016725  0.72450137     0.29600
H2177       H  0.50442337  0.10890768  0.59403644     0.29600
H2178       H  0.54944944  0.05356125  0.67649273     0.29900
Zr2179     Zr  0.55354395  0.93739113  0.72501011     2.17500
O2180       O  0.55090046  0.98420379  0.72801578    -0.52500
O2181       O  0.56000850  0.93416151  0.67901523    -0.75700
O2182       O  0.59516677  0.95628672  0.71840149    -0.82400
O2183       O  0.48817714  0.93981519  0.74210887    -0.84200
O2184       O  0.62386719  0.93545764  0.74390989    -0.79800
O2185       O  0.51394143  0.95774744  0.71248169    -0.91400
O2186       O  0.57746622  0.89458774  0.67259866    -0.77400
O2187       O  0.58694219  0.90604764  0.72463202    -0.86900
O2188       O  0.53219626  0.89941411  0.71021713    -0.86600
O2189       O  0.56938560  0.93569508  0.76852263    -0.73300
O2190       O  0.52148831  0.92801215  0.75648281    -0.85500
Zr2191     Zr  0.54904674  0.85517007  0.78487319     2.26400
Zr2192     Zr  0.60178938  0.90242267  0.76802339     2.06300
Zr2193     Zr  0.49952679  0.89060775  0.74224348     2.10000
Zr2194     Zr  0.56667125  0.86835956  0.70984911     1.78800
O2195       O  0.45977184  0.88487516  0.76679270    -0.94300
O2196       O  0.61081337  0.85583652  0.69837166    -0.42100
O2197       O  0.53451973  0.86108315  0.74181331    -0.78700
O2198       O  0.58295302  0.86277993  0.75337657    -0.97400
O2199       O  0.56885662  0.89371336  0.79899086    -0.90700
O2200       O  0.51487356  0.88617177  0.78602197    -0.93600
C2201       C  0.57201549  0.91743593  0.66517722     1.00200
C2202       C  0.49580808  0.96002519  0.72896610     1.13100
C2203       C  0.61783985  0.95257011  0.72728899     1.03900
O2204       O  0.64172790  0.88044344  0.75567390    -0.95700
O2205       O  0.61306892  0.87752251  0.80591800    -0.91500
O2206       O  0.59041909  0.84094264  0.80094208    -0.84600
C2207       C  0.60685686  0.85480120  0.81305087     1.10500
O2208       O  0.52479911  0.96993216  0.80914898    -0.97700
Zr2209     Zr  0.53611176  0.92539085  0.79929412     1.88900
O2210       O  0.53848182  0.86180865  0.83077422    -0.74300
O2211       O  0.62570771  0.93102031  0.79672523    -0.53600
O2212       O  0.56697333  0.94915161  0.82574477    -0.98300
O2213       O  0.49133576  0.93217698  0.81303834    -0.55500
O2214       O  0.53676786  0.90444297  0.83959138    -0.74900
C2215       C  0.53693753  0.88109560  0.84648972     0.97500
O2216       O  0.54296105  0.81234508  0.80300128    -0.63700
O2217       O  0.46994949  0.88919142  0.70587462    -0.58500
O2218       O  0.52343087  0.82151748  0.76441728    -0.95200
O2219       O  0.49671554  0.84092924  0.73564192    -0.93600
O2220       O  0.53919163  0.85092718  0.67587455    -0.93900
O2221       O  0.57143724  0.82215233  0.70371804    -0.92700
C2222       C  0.50712084  0.82020283  0.74583058     1.16300
H2223       H  0.52461886  0.90153916  0.69338104     0.32300
H2224       H  0.59564338  0.84910308  0.75332775     0.43100
H2225       H  0.50134804  0.88089914  0.79763895     0.36700
H2226       H  0.57718547  0.95195963  0.77314039     0.33100
H2227       H  0.61489405  0.86484264  0.68216307     0.24900
H2228       H  0.61734917  0.92906860  0.81379269     0.30900
H2229       H  0.55945193  0.94966715  0.84333280     0.36800
H2230       H  0.52182244  0.84972619  0.68384950     0.31200
H2231       H  0.46905920  0.90717061  0.69986643     0.30100
H2232       H  0.45369156  0.86749048  0.76181157     0.31800
H2233       H  0.48549208  0.91574609  0.82047960     0.30800
H2234       H  0.57698979  0.81953215  0.68558330     0.34800
H2235       H  0.55900785  0.80262444  0.79899785     0.27500
H2236       H  0.56133468  0.99095390  0.71357454     0.31700
H2237       H  0.51867666  0.97024241  0.82726930     0.34600
H2238       H  0.47961086  0.87986758  0.69213154     0.27200
H2239       H  0.54318310  0.81455759  0.82198003     0.40000
H2240       H  0.65252752  0.89375014  0.74745533     0.30100
H2241       H  0.62179844  0.86435627  0.71146204     0.37700
H2242       H  0.48143159  0.93385628  0.79684788     0.29600
H2243       H  0.64284755  0.92270779  0.79857781     0.29600
H2244       H  0.56055596  0.98894578  0.74380155     0.29900
Zr2245     Zr  0.52125368  0.68858770  0.78980688     2.17500
O2246       O  0.52646444  0.73526964  0.79104928    -0.52500
O2247       O  0.56724533  0.68444587  0.79492981    -0.75700
O2248       O  0.52488134  0.71189590  0.82992893    -0.82400
O2249       O  0.49819550  0.69023993  0.72516772    -0.84200
O2250       O  0.50785335  0.68666109  0.86117458    -0.79800
O2251       O  0.53145636  0.70535089  0.74783527    -0.91400
O2252       O  0.57271859  0.64590522  0.81366531    -0.77400
O2253       O  0.52459084  0.65698389  0.82224227    -0.86900
O2254       O  0.53355453  0.65050684  0.76648622    -0.86600
O2255       O  0.47920637  0.68686623  0.80985233    -0.73300
O2256       O  0.48669581  0.67983027  0.76073026    -0.85500
Zr2257     Zr  0.45958428  0.60717582  0.78916576     2.26400
Zr2258     Zr  0.48243051  0.65310824  0.84096268     2.06300
Zr2259     Zr  0.49814467  0.64195433  0.73706755     2.10000
Zr2260     Zr  0.53655201  0.61917103  0.79998331     1.78800
O2261       O  0.46907787  0.63433470  0.70094157    -0.94300
O2262       O  0.54861120  0.60310882  0.84225668    -0.42100
O2263       O  0.50163408  0.61211397  0.77111726    -0.78700
O2264       O  0.49442114  0.61359976  0.81963351    -0.97400
O2265       O  0.44806974  0.64560349  0.81133910    -0.90700
O2266       O  0.45560322  0.63876877  0.75628236    -0.93600
C2267       C  0.58044835  0.66860907  0.80816104     1.00200
C2268       C  0.51342844  0.70927721  0.73177108     1.13100
C2269       C  0.52001984  0.70665212  0.85348397     1.03900
O2270       O  0.49993381  0.63254256  0.87902427    -0.95700
O2271       O  0.44860163  0.62535620  0.85804790    -0.91500
O2272       O  0.44759145  0.59103771  0.83098311    -0.84600
C2273       C  0.44039635  0.60291136  0.85153439     1.10500
O2274       O  0.44197443  0.72388943  0.77191715    -0.97700
Zr2275     Zr  0.44529631  0.67788238  0.77967609     1.88900
O2276       O  0.41287084  0.61467737  0.78594517    -0.74300
O2277       O  0.45527285  0.68077770  0.86797460    -0.53600
O2278       O  0.41995387  0.70072011  0.81240916    -0.98300
O2279       O  0.42527027  0.68750035  0.73832552    -0.55500
O2280       O  0.40451675  0.65738676  0.78410948    -0.74900
C2281       C  0.39737368  0.63409614  0.78608608     0.97500
O2282       O  0.44417965  0.56287333  0.78611135    -0.63700
O2283       O  0.53016228  0.64042542  0.70254324    -0.58500
O2284       O  0.47016525  0.57506031  0.75614530    -0.95200
O2285       O  0.50415071  0.59250738  0.73506296    -0.93600
O2286       O  0.56877698  0.60324597  0.76929629    -0.93900
O2287       O  0.54675290  0.57343196  0.79986662    -0.92700
C2288       C  0.49100783  0.57244875  0.74292688     1.16300
H2289       H  0.54973244  0.65260259  0.75738682     0.32300
H2290       H  0.49530940  0.59973449  0.83181304     0.43100
H2291       H  0.44246541  0.63398462  0.74396086     0.36700
H2292       H  0.47547239  0.70301091  0.81853967     0.33100
H2293       H  0.56751349  0.60013901  0.84112833     0.24900
H2294       H  0.43810480  0.68036797  0.85961053     0.30900
H2295       H  0.40420753  0.70662140  0.80338816     0.36800
H2296       H  0.58358770  0.61512782  0.77114500     0.31200
H2297       H  0.52066424  0.64607372  0.68705903     0.30100
H2298       H  0.46461666  0.65174570  0.69480149     0.31800
H2299       H  0.40924875  0.69705358  0.74283321     0.30800
H2300       H  0.53543042  0.56598396  0.81326580     0.34800
H2301       H  0.45479820  0.55293769  0.79839006     0.27500
H2302       H  0.54215876  0.73917692  0.78084243     0.31700
H2303       H  0.45216680  0.73217692  0.78580944     0.34600
H2304       H  0.54205000  0.65480386  0.70652055     0.27200
H2305       H  0.42659873  0.56309049  0.79374178     0.40000
H2306       H  0.49632566  0.64487209  0.89329296     0.30100
H2307       H  0.54673193  0.61812068  0.85402702     0.37700
H2308       H  0.41900039  0.67081433  0.73149884     0.29600
H2309       H  0.45286608  0.67112653  0.88414410     0.29600
H2310       H  0.51184026  0.74233296  0.78109696     0.29900
Zr2311     Zr  0.44569743  0.35611896  0.71076338     2.17500
O2312       O  0.44929093  0.31802066  0.68286276    -0.52500
O2313       O  0.44661919  0.36713173  0.66456018    -0.75700
O2314       O  0.40373343  0.33656937  0.70892879    -0.82400
O2315       O  0.50932911  0.34366424  0.74443556    -0.84200
O2316       O  0.37679560  0.37029584  0.71016662    -0.79800
O2317       O  0.47770188  0.32373920  0.72133664    -0.91400
O2318       O  0.44185632  0.41017777  0.66042642    -0.77400
O2319       O  0.41836148  0.39248608  0.70687252    -0.86900
O2320       O  0.47504709  0.39097774  0.70467131    -0.86600
O2321       O  0.42141783  0.35763595  0.75121458    -0.73300
O2322       O  0.47079344  0.36080687  0.74872050    -0.85500
Zr2323     Zr  0.45046828  0.43293991  0.77861299     2.26400
Zr2324     Zr  0.39487606  0.39496225  0.74652421     2.06300
Zr2325     Zr  0.50173574  0.39307774  0.74280936     2.10000
Zr2326     Zr  0.44656093  0.42780926  0.70224844     1.78800
O2327       O  0.53816335  0.39725972  0.77214437    -0.94300
O2328       O  0.40736553  0.44711872  0.68480823    -0.42100
O2329       O  0.47260052  0.42793901  0.73903658    -0.78700
O2330       O  0.42260144  0.43156719  0.74157664    -0.97400
O2331       O  0.42122080  0.39800233  0.78435383    -0.90700
O2332       O  0.47898495  0.39689236  0.78350391    -0.93600
C2333       C  0.44399355  0.38761090  0.65105617     1.00200
C2334       C  0.49828783  0.32279867  0.73497738     1.13100
C2335       C  0.38368232  0.34823396  0.70098270     1.03900
O2336       O  0.35878083  0.41946402  0.72916670    -0.95700
O2337       O  0.37726846  0.42828405  0.77437308    -0.91500
O2338       O  0.40992818  0.45100190  0.79295373    -0.84600
C2339       C  0.38598895  0.44664155  0.78861192     1.10500
O2340       O  0.44825731  0.31547812  0.78574896    -0.97700
Zr2341     Zr  0.44895482  0.36219521  0.78886928     1.88900
O2342       O  0.45860638  0.42390258  0.82315816    -0.74300
O2343       O  0.36498805  0.36798618  0.77037272    -0.53600
O2344       O  0.42103198  0.33646622  0.81621822    -0.98300
O2345       O  0.48880492  0.34776285  0.80920227    -0.55500
O2346       O  0.43785543  0.38643955  0.82806388    -0.74900
C2347       C  0.44495431  0.40862345  0.83649960     0.97500
O2348       O  0.44502407  0.47858734  0.78921595    -0.63700
O2349       O  0.53631384  0.38719552  0.71130399    -0.58500
O2350       O  0.48949123  0.45889269  0.77486596    -0.95200
O2351       O  0.50958545  0.44210484  0.73987244    -0.93600
O2352       O  0.48314085  0.44410078  0.67775143    -0.93900
O2353       O  0.44988854  0.47446482  0.70264648    -0.92700
C2354       C  0.50367817  0.46183089  0.75483843     1.16300
H2355       H  0.48545638  0.38871117  0.68931210     0.32300
H2356       H  0.41239085  0.44714176  0.74111305     0.43100
H2357       H  0.49087895  0.39898550  0.79770257     0.36700
H2358       H  0.41081163  0.34262305  0.75375092     0.33100
H2359       H  0.39486769  0.43278656  0.68347527     0.24900
H2360       H  0.36596533  0.37452158  0.78834810     0.30900
H2361       H  0.40327554  0.34217514  0.81201823     0.36800
H2362       H  0.49854370  0.43620945  0.68576054     0.31200
H2363       H  0.53590885  0.40302581  0.70090202     0.30100
H2364       H  0.54477874  0.37949564  0.77401472     0.31800
H2365       H  0.49225383  0.36047010  0.82311277     0.30800
H2366       H  0.44816617  0.47943871  0.72105738     0.34800
H2367       H  0.45011664  0.48815222  0.77359971     0.27500
H2368       H  0.43592772  0.32009200  0.66942479     0.31700
H2369       H  0.44713080  0.31163711  0.76704917     0.34600
H2370       H  0.55245496  0.38854881  0.72141991     0.27200
H2371       H  0.45812764  0.48296551  0.80241055     0.40000
H2372       H  0.34501291  0.40671339  0.72573148     0.30100
H2373       H  0.40029312  0.45832402  0.69870707     0.37700
H2374       H  0.50258131  0.35060837  0.79625471     0.29600
H2375       H  0.34764283  0.37334936  0.76441665     0.29600
H2376       H  0.44292134  0.30348362  0.69327480     0.29900
Zr2377     Zr  0.33247716  0.49347287  0.92378067     2.17500
O2378       O  0.34053646  0.48992523  0.87729909    -0.52500
O2379       O  0.35365692  0.53144874  0.90601767    -0.75700
O2380       O  0.29420537  0.49212668  0.89739251    -0.82400
O2381       O  0.39957815  0.46998407  0.93734029    -0.84200
O2382       O  0.25832489  0.49831135  0.92222142    -0.79800
O2383       O  0.36554973  0.46243933  0.91103079    -0.91400
O2384       O  0.35915743  0.56163313  0.93722227    -0.77400
O2385       O  0.30778467  0.52493274  0.94739046    -0.86900
O2386       O  0.36331156  0.51179962  0.95245319    -0.86600
O2387       O  0.29703130  0.47089190  0.94453086    -0.73300
O2388       O  0.34788252  0.45854036  0.94928508    -0.85500
Zr2389     Zr  0.32182849  0.48838707  0.02387438     2.26400
Zr2390     Zr  0.27325814  0.50250454  0.97006479     2.06300
Zr2391     Zr  0.37826467  0.47762570  0.97849642     2.10000
Zr2392     Zr  0.33930145  0.54382679  0.97535948     1.78800
O2393       O  0.40140174  0.43696444  0.98031535    -0.94300
O2394       O  0.31039590  0.57950731  0.96565039    -0.42100
O2395       O  0.35612340  0.51067898  0.00248937    -0.78700
O2396       O  0.30497607  0.52283365  0.99747508    -0.97400
O2397       O  0.29085346  0.46909575  0.99530137    -0.90700
O2398       O  0.34393663  0.45552153  0.99916134    -0.93600
C2399       C  0.36278345  0.55295191  0.91427814     1.00200
C2400       C  0.38960580  0.46047006  0.91679854     1.13100
C2401       C  0.26967239  0.49410252  0.89973422     1.03900
O2402       O  0.25318311  0.54490851  0.97016682    -0.95700
O2403       O  0.25756361  0.49601935  0.01854020    -0.91500
O2404       O  0.28860029  0.51322005  0.04291591    -0.84600
C2405       C  0.26672654  0.50275182  0.04151841     1.10500
O2406       O  0.31543523  0.40995453  0.93226204    -0.97700
Zr2407     Zr  0.31328782  0.43720605  0.97076459     1.88900
O2408       O  0.29151130  0.45480201  0.03649330    -0.74300
O2409       O  0.22906743  0.48615514  0.96969312    -0.53600
O2410       O  0.26952463  0.42138131  0.96421710    -0.98300
O2411       O  0.33505649  0.39574238  0.97481474    -0.55500
O2412       O  0.30645437  0.42119369  0.01381131    -0.74900
C2413       C  0.28988546  0.43137891  0.02899627     0.97500
O2414       O  0.32970694  0.50866487  0.06579024    -0.63700
O2415       O  0.41989573  0.49881208  0.98341996    -0.58500
O2416       O  0.35494005  0.46746292  0.04875145    -0.95200
O2417       O  0.38763587  0.48053880  0.02448295    -0.93600
O2418       O  0.37861466  0.56668708  0.98712906    -0.93900
O2419       O  0.33750744  0.57012985  0.01450757    -0.92700
C2420       C  0.37828014  0.46503786  0.04097897     1.16300
H2421       H  0.37862864  0.51830900  0.94411470     0.32300
H2422       H  0.29636788  0.53650098  0.00693165     0.43100
H2423       H  0.35040336  0.44141085  0.00909328     0.36700
H2424       H  0.28608927  0.46193393  0.93243240     0.33100
H2425       H  0.30145500  0.57446197  0.94953888     0.24900
H2426       H  0.22034094  0.49483138  0.98443609     0.30900
H2427       H  0.26994136  0.40355509  0.97071229     0.36800
H2428       H  0.39232550  0.55335009  0.98658794     0.31200
H2429       H  0.43258635  0.48454768  0.98425038     0.30100
H2430       H  0.38770281  0.42373461  0.98062883     0.31800
H2431       H  0.32167085  0.38397982  0.98153861     0.30800
H2432       H  0.33671066  0.55760289  0.02872079     0.34800
H2433       H  0.32779950  0.49498212  0.07877775     0.27500
H2434       H  0.33116885  0.50425235  0.86899239     0.31700
H2435       H  0.30997371  0.42122260  0.91801185     0.34600
H2436       H  0.42326404  0.50700524  0.96661385     0.27200
H2437       H  0.34827319  0.51326968  0.06594081     0.40000
H2438       H  0.23472311  0.54172460  0.97405704     0.30100
H2439       H  0.29679792  0.57885089  0.97911556     0.37700
H2440       H  0.34734156  0.39791749  0.98926023     0.29600
H2441       H  0.22082769  0.49372414  0.95434468     0.29600
H2442       H  0.33178351  0.47407523  0.87125755     0.29900
Zr2443     Zr  0.25899661  0.55316140  0.76817665     2.17500
O2444       O  0.23954680  0.56847004  0.80846144    -0.52500
O2445       O  0.29228296  0.52630099  0.78568003    -0.75700
O2446       O  0.23341538  0.52506086  0.79223105    -0.82400
O2447       O  0.28161717  0.62031467  0.76113229    -0.84200
O2448       O  0.24242189  0.48850368  0.76987496    -0.79800
O2449       O  0.28498331  0.58658013  0.78809686    -0.91400
O2450       O  0.32617348  0.53381900  0.75925465    -0.77400
O2451       O  0.27569416  0.51747093  0.74322481    -0.86900
O2452       O  0.29205978  0.57026012  0.74132722    -0.86600
O2453       O  0.22318549  0.53421025  0.74489416    -0.73300
O2454       O  0.23706184  0.58614708  0.74554090    -0.85500
Zr2455     Zr  0.25044721  0.55229547  0.66952704     2.26400
Zr2456     Zr  0.24043067  0.49905120  0.71971227     2.06300
Zr2457     Zr  0.27052162  0.60306552  0.71865509     2.10000
Zr2458     Zr  0.30784518  0.53582458  0.71629532     1.78800
O2459       O  0.25050979  0.64541081  0.72223590    -0.94300
O2460       O  0.32624621  0.49267564  0.71741221    -0.42100
O2461       O  0.28722639  0.56874712  0.69213215    -0.78700
O2462       O  0.27259691  0.51840282  0.69241716    -0.97400
O2463       O  0.21835642  0.53211632  0.69559402    -0.90700
O2464       O  0.23422349  0.58687642  0.69572614    -0.93600
C2465       C  0.31608363  0.52403868  0.77942856     1.00200
C2466       C  0.29157763  0.60909291  0.78068065     1.13100
C2467       C  0.23764894  0.50111990  0.79190295     1.03900
O2468       O  0.25387252  0.45422320  0.72202212    -0.95700
O2469       O  0.24296887  0.48017711  0.67206282    -0.91500
O2470       O  0.24880715  0.51334736  0.64443673    -0.84600
C2471       C  0.24644792  0.48934538  0.64849997     1.10500
O2472       O  0.17692454  0.56413121  0.76141158    -0.97700
Zr2473     Zr  0.20209324  0.56697423  0.72167370     1.88900
O2474       O  0.21319887  0.57454342  0.65144580    -0.74300
O2475       O  0.19644808  0.48261015  0.72044697    -0.53600
O2476       O  0.16275395  0.54237650  0.71416078    -0.98300
O2477       O  0.18395902  0.60825812  0.73544974    -0.55500
O2478       O  0.18322500  0.58259038  0.68251532    -0.74900
C2479       C  0.19198381  0.58473978  0.65953661     0.97500
O2480       O  0.25395237  0.54834356  0.62263636    -0.63700
O2481       O  0.31242437  0.62437801  0.71558800    -0.58500
O2482       O  0.28243310  0.58168432  0.65294937    -0.95200
O2483       O  0.27436596  0.61849221  0.67490413    -0.93600
O2484       O  0.34770945  0.56053927  0.71358136    -0.93900
O2485       O  0.33166826  0.53094931  0.67593154    -0.92700
C2486       C  0.28380704  0.60611605  0.65557551     1.16300
H2487       H  0.30741675  0.57683223  0.74956874     0.32300
H2488       H  0.28060950  0.50602347  0.68086267     0.43100
H2489       H  0.22784291  0.60162837  0.68656933     0.36700
H2490       H  0.20961591  0.52711697  0.75553370     0.33100
H2491       H  0.34355650  0.49501313  0.72516210     0.24900
H2492       H  0.19509811  0.47202372  0.70452269     0.30900
H2493       H  0.16354731  0.53705938  0.69578319     0.36800
H2494       H  0.35969411  0.55240421  0.72591149     0.31200
H2495       H  0.32488768  0.61035480  0.71175054     0.30100
H2496       H  0.23585694  0.64307509  0.73431184     0.31800
H2497       H  0.19138124  0.62079997  0.72329022     0.30800
H2498       H  0.31866556  0.53408464  0.66234480     0.34800
H2499       H  0.24784339  0.56497773  0.61579529     0.27500
H2500       H  0.23855276  0.58741837  0.80702845     0.31700
H2501       H  0.18933356  0.56835754  0.77531884     0.34600
H2502       H  0.31210301  0.63477500  0.69973317     0.27200
H2503       H  0.27269471  0.54793380  0.61857474     0.40000
H2504       H  0.27134591  0.45386254  0.71414876     0.30100
H2505       H  0.31613887  0.48370991  0.73082885     0.37700
H2506       H  0.19239608  0.61234970  0.75210015     0.29600
H2507       H  0.19637090  0.47001103  0.73460654     0.29600
H2508       H  0.25268102  0.56529820  0.82190901     0.29900
Zr2509     Zr  0.19883445  0.50883252  0.50904962     2.17500
O2510       O  0.19615487  0.52543845  0.55354193    -0.52500
O2511       O  0.23477034  0.54030934  0.50691805    -0.75700
O2512       O  0.22277591  0.48594921  0.54013647    -0.82400
O2513       O  0.13024099  0.53719617  0.50404381    -0.84200
O2514       O  0.24824717  0.45868295  0.51664563    -0.79800
O2515       O  0.16642813  0.53677997  0.52844735    -0.91400
O2516       O  0.23741367  0.55516856  0.46612824    -0.77400
O2517       O  0.22620193  0.50520353  0.47432269    -0.86900
O2518       O  0.17922912  0.53338317  0.47650326    -0.86600
O2519       O  0.20110538  0.46307956  0.49938136    -0.73300
O2520       O  0.15851625  0.48689669  0.50043956    -0.85500
Zr2521     Zr  0.17562281  0.46552822  0.42010075     2.26400
Zr2522     Zr  0.23457875  0.46163705  0.46695709     2.06300
Zr2523     Zr  0.14014357  0.51155599  0.46654054     2.10000
Zr2524     Zr  0.20837327  0.53023796  0.44182361     1.78800
O2525       O  0.09681096  0.50004666  0.48060751    -0.94300
O2526       O  0.24614956  0.53470903  0.41384109    -0.42100
O2527       O  0.16864248  0.51024756  0.43008886    -0.78700
O2528       O  0.21462522  0.48669654  0.43352931    -0.97400
O2529       O  0.19483640  0.44004625  0.45331715    -0.90700
O2530       O  0.14413666  0.46746959  0.45337758    -0.93600
C2531       C  0.24504637  0.55444865  0.48935072     1.00200
C2532       C  0.14363615  0.54486993  0.52329369     1.13100
C2533       C  0.24020369  0.46881112  0.53905650     1.03900
O2534       O  0.27969373  0.47465374  0.46651728    -0.95700
O2535       O  0.24859508  0.45310414  0.41846142    -0.91500
O2536       O  0.21273738  0.45668152  0.39297486    -0.84600
C2537       C  0.23724903  0.45398107  0.39552342     1.10500
O2538       O  0.15891939  0.42490305  0.52941491    -0.97700
Zr2539     Zr  0.16227320  0.44237046  0.48618657     1.88900
O2540       O  0.15536289  0.42362823  0.41676548    -0.74300
O2541       O  0.25040206  0.41726956  0.46889636    -0.53600
O2542       O  0.18469007  0.40156476  0.49161698    -0.98300
O2543       O  0.11890558  0.44058131  0.50465091    -0.55500
O2544       O  0.13846227  0.41493961  0.45585659    -0.74900
C2545       C  0.13997401  0.41113759  0.43139401     0.97500
O2546       O  0.17554445  0.45907101  0.37334246    -0.63700
O2547       O  0.12973748  0.55555188  0.45435013    -0.58500
O2548       O  0.13658132  0.48356454  0.40070388    -0.95200
O2549       O  0.11435569  0.50933866  0.42881062    -0.93600
O2550       O  0.19087871  0.57389860  0.44022796    -0.93900
O2551       O  0.20021397  0.53914847  0.39631545    -0.92700
C2552       C  0.11738092  0.49818499  0.40700860     1.16300
H2553       H  0.17654916  0.55110139  0.48173270     0.32300
H2554       H  0.22612022  0.49061569  0.42001560     0.43100
H2555       H  0.12754707  0.46107026  0.44778938     0.36700
H2556       H  0.20442180  0.45229297  0.51402629     0.33100
H2557       H  0.25158522  0.55285271  0.41584821     0.24900
H2558       H  0.23725543  0.40793629  0.47903690     0.30900
H2559       H  0.17095907  0.38837630  0.49059420     0.36800
H2560       H  0.20484290  0.58429672  0.43247312     0.31200
H2561       H  0.13217114  0.55612365  0.43542574     0.30100
H2562       H  0.08642185  0.51587424  0.47829516     0.31800
H2563       H  0.11178214  0.42387479  0.49877420     0.30800
H2564       H  0.19755528  0.52212552  0.38798455     0.34800
H2565       H  0.16003380  0.44858375  0.36958633     0.27500
H2566       H  0.21394570  0.53008267  0.55879221     0.31700
H2567       H  0.15806712  0.44018849  0.54095443     0.34600
H2568       H  0.11083663  0.55723209  0.45702306     0.27200
H2569       H  0.17176791  0.47611048  0.36585462     0.40000
H2570       H  0.28389147  0.47820025  0.48481159     0.30100
H2571       H  0.25992522  0.52465599  0.42233236     0.37700
H2572       H  0.10887876  0.45352673  0.49504537     0.29600
H2573       H  0.24867356  0.41027868  0.45114953     0.29600
H2574       H  0.19102964  0.51108222  0.56488022     0.29900
Zr2575     Zr  0.24530761  0.39533468  0.26611139     2.17500
O2576       O  0.26492920  0.37516760  0.30352928    -0.52500
O2577       O  0.21808316  0.42675683  0.28812019    -0.75700
O2578       O  0.27686410  0.42231973  0.28450923    -0.82400
O2579       O  0.20819359  0.33320292  0.26146442    -0.84200
O2580       O  0.26267974  0.45825410  0.26591916    -0.79800
O2581       O  0.22097172  0.36400875  0.29026670    -0.91400
O2582       O  0.18060907  0.41980916  0.26762830    -0.77400
O2583       O  0.22806273  0.43202543  0.24407898    -0.86900
O2584       O  0.20762723  0.38129658  0.24371178    -0.86600
O2585       O  0.27922831  0.41062172  0.23753750    -0.73300
O2586       O  0.26114594  0.36087593  0.23980005    -0.85500
Zr2587     Zr  0.23828194  0.39526691  0.16652619     2.26400
Zr2588     Zr  0.26098906  0.44724528  0.21583378     2.06300
Zr2589     Zr  0.22310607  0.34619586  0.21840479     2.10000
Zr2590     Zr  0.19103165  0.41693260  0.22184379     1.78800
O2591       O  0.25135310  0.30986290  0.22729539    -0.94300
O2592       O  0.17989931  0.46241192  0.22460754    -0.42100
O2593       O  0.20443521  0.38136590  0.19477223    -0.78700
O2594       O  0.22377436  0.43094539  0.19307476    -0.97400
O2595       O  0.27551744  0.41259280  0.18773514    -0.90700
O2596       O  0.25597469  0.36008733  0.18916310    -0.93600
C2597       C  0.19415069  0.43156136  0.28457964     1.00200
C2598       C  0.20800340  0.34387953  0.28407174     1.13100
C2599       C  0.27027903  0.44558746  0.28663413     1.03900
O2600       O  0.24588156  0.49165957  0.21703642    -0.95700
O2601       O  0.25859887  0.46466864  0.16844051    -0.91500
O2602       O  0.24485156  0.43278910  0.14133243    -0.84600
C2603       C  0.25202414  0.45596753  0.14524410     1.10500
O2604       O  0.32198123  0.36484483  0.24478322    -0.97700
Zr2605     Zr  0.29297905  0.37664729  0.20994228     1.88900
O2606       O  0.27401821  0.38245247  0.13855622    -0.74300
O2607       O  0.30433565  0.46532627  0.21562037    -0.53600
O2608       O  0.33360320  0.40015701  0.20938560    -0.98300
O2609       O  0.30870704  0.33256827  0.20487950    -0.55500
O2610       O  0.30694952  0.37290074  0.16557069    -0.74900
C2611       C  0.29725758  0.37509354  0.14299401     0.97500
O2612       O  0.20628899  0.40302180  0.13299768    -0.63700
O2613       O  0.18341897  0.32094339  0.21685745    -0.58500
O2614       O  0.22426985  0.35530962  0.14657067    -0.95200
O2615       O  0.21634209  0.32506924  0.17698894    -0.93600
O2616       O  0.14729211  0.40005297  0.22557204    -0.93900
O2617       O  0.16214852  0.42724187  0.18648121    -0.92700
C2618       C  0.21789354  0.33262000  0.15361269     1.16300
H2619       H  0.19314241  0.37641736  0.25423356     0.32300
H2620       H  0.21621448  0.44419248  0.18260684     0.43100
H2621       H  0.26132530  0.34638562  0.17758268     0.36700
H2622       H  0.29507948  0.41605494  0.24567404     0.33100
H2623       H  0.16654051  0.46353949  0.23829151     0.24900
H2624       H  0.31600688  0.45037946  0.21768479     0.30900
H2625       H  0.34659885  0.38747024  0.20318574     0.36800
H2626       H  0.13912717  0.41017309  0.23971860     0.31200
H2627       H  0.17413640  0.32631875  0.20114169     0.30100
H2628       H  0.25557088  0.30245968  0.21011613     0.31800
H2629       H  0.32569628  0.33420342  0.19619286     0.30800
H2630       H  0.16589275  0.41398936  0.17312384     0.34800
H2631       H  0.21344828  0.39478185  0.11718958     0.27500
H2632       H  0.26202401  0.38730502  0.31810765     0.31700
H2633       H  0.31254340  0.35156991  0.25455796     0.34600
H2634       H  0.18902411  0.30300972  0.21332374     0.27200
H2635       H  0.19117233  0.39236568  0.13762520     0.40000
H2636       H  0.24531619  0.49643403  0.23555835     0.30100
H2637       H  0.19531454  0.47088622  0.23202537     0.37700
H2638       H  0.29749386  0.32435607  0.19177943     0.29600
H2639       H  0.30709566  0.47078690  0.19760073     0.29600
H2640       H  0.28381366  0.37548182  0.30030771     0.29900
Zr2641     Zr  0.94306250  0.09542994  0.30496266     2.17500
O2642       O  0.95860420  0.13359016  0.32790397    -0.52500
O2643       O  0.94186546  0.08877628  0.35150064    -0.75700
O2644       O  0.90343431  0.11967888  0.31079638    -0.82400
O2645       O  0.00856677  0.09775081  0.27231699    -0.84200
O2646       O  0.87090224  0.09108710  0.30569527    -0.79800
O2647       O  0.97698022  0.12359052  0.28939395    -0.91400
O2648       O  0.93915165  0.04642304  0.36065881    -0.77400
O2649       O  0.91212634  0.06287240  0.31230248    -0.86900
O2650       O  0.96863535  0.05802239  0.31336198    -0.86600
O2651       O  0.91717562  0.09413819  0.26620241    -0.73300
O2652       O  0.96672123  0.08532138  0.26700712    -0.85500
Zr2653     Zr  0.93841291  0.01487058  0.24410144     2.26400
Zr2654     Zr  0.88715825  0.06005145  0.27376984     2.06300
Zr2655     Zr  0.99425460  0.04995113  0.27491883     2.10000
Zr2656     Zr  0.93645925  0.02510263  0.31971526     1.78800
O2657       O  0.02878760  0.04358025  0.24343801    -0.94300
O2658       O  0.89561395  0.01805182  0.34219945    -0.42100
O2659       O  0.96239957  0.01836407  0.28266667    -0.78700
O2660       O  0.91093078  0.02095205  0.28125929    -0.97400
O2661       O  0.91278558  0.05183096  0.23607241    -0.90700
O2662       O  0.96970451  0.04722055  0.23569948    -0.93600
C2663       C  0.94026075  0.07005955  0.36735019     1.00200
C2664       C  0.99894743  0.12063390  0.27812099     1.13100
C2665       C  0.88043474  0.11183253  0.31543147     1.03900
O2666       O  0.85300241  0.03663844  0.29586811    -0.95700
O2667       O  0.86621963  0.03396477  0.24065489    -0.91500
O2668       O  0.89729771  0.00694353  0.22524806    -0.84600
C2669       C  0.87422559  0.01563790  0.22574895     1.10500
O2670       O  0.94194678  0.13075748  0.22194405    -0.97700
Zr2671     Zr  0.94293485  0.08433529  0.22802426     1.88900
O2672       O  0.94755228  0.01712544  0.19886507    -0.74300
O2673       O  0.85677767  0.08948883  0.25368883    -0.53600
O2674       O  0.90615619  0.10000578  0.20324421    -0.98300
O2675       O  0.98152336  0.10190310  0.20795265    -0.55500
O2676       O  0.94298331  0.05895704  0.18815941    -0.74900
C2677       C  0.94528042  0.03499290  0.18233052     0.97500
O2678       O  0.93026410  0.96873801  0.24070519    -0.63700
O2679       O  0.02950531  0.04914562  0.30585105    -0.58500
O2680       O  0.97264051  0.98339045  0.24484417    -0.95200
O2681       O  0.99852873  0.99992208  0.27591550    -0.93600
O2682       O  0.96973186  0.00118867  0.34240831    -0.93900
O2683       O  0.93054615  0.97876651  0.32298592    -0.92700
C2684       C  0.98926389  0.98023603  0.26263030     1.16300
H2685       H  0.97951656  0.06035843  0.32832864     0.32300
H2686       H  0.89911569  0.00678895  0.28263647     0.43100
H2687       H  0.98103637  0.04314190  0.22129818     0.36700
H2688       H  0.90794574  0.11003358  0.26375912     0.33100
H2689       H  0.88608049  0.00537065  0.33153073     0.24900
H2690       H  0.86264426  0.09052474  0.23554461     0.30900
H2691       H  0.90307943  0.08707621  0.18945396     0.36800
H2692       H  0.98115529  0.99417508  0.32864358     0.31200
H2693       H  0.02788188  0.06556680  0.31558867     0.30100
H2694       H  0.02772164  0.02516077  0.23852039     0.31800
H2695       H  0.97909338  0.09879199  0.18924856     0.30800
H2696       H  0.91712156  0.97427983  0.31017416     0.34800
H2697       H  0.91239114  0.96611155  0.24699055     0.27500
H2698       H  0.97296194  0.12745458  0.33887763     0.31700
H2699       H  0.92998922  0.13765494  0.23529327     0.34600
H2700       H  0.02443090  0.03578926  0.31832395     0.27200
H2701       H  0.92954714  0.96494054  0.22194512     0.40000
H2702       H  0.83841724  0.03596165  0.28357587     0.30100
H2703       H  0.90034118  0.00863708  0.35798460     0.37700
H2704       H  0.99562876  0.09003422  0.21283940     0.29600
H2705       H  0.84029221  0.07989658  0.25286002     0.29600
H2706       H  0.94471785  0.13832088  0.34027150     0.29900
Zr2707     Zr  0.00294759  0.76108989  0.19432423     2.17500
O2708       O  0.99654470  0.71776724  0.17680237    -0.52500
O2709       O  0.04867165  0.76020976  0.20060355    -0.75700
O2710       O  0.02393475  0.75231696  0.15438505    -0.82400
O2711       O  0.97746766  0.74779473  0.25719843    -0.84200
O2712       O  0.00393928  0.77686120  0.12446691    -0.79800
O2713       O  0.00538641  0.73038396  0.22793421    -0.91400
O2714       O  0.06167954  0.80172909  0.19824501    -0.77400
O2715       O  0.01222586  0.79765297  0.16939136    -0.86900
O2716       O  0.01457113  0.79285184  0.22569254    -0.86600
O2717       O  0.96478067  0.76892931  0.16955115    -0.73300
O2718       O  0.96621226  0.76574724  0.22172583    -0.85500
Zr2719     Zr  0.94587064  0.84376312  0.20291208     2.26400
Zr2720     Zr  0.97410964  0.80725755  0.14593058     2.06300
Zr2721     Zr  0.97698771  0.79819352  0.25252113     2.00400
Zr2722     Zr  0.02318678  0.82954986  0.19955048     1.78800
O2723       O  0.94534533  0.80050869  0.28736625    -0.94300
O2724       O  0.03190998  0.87555325  0.20137935    -0.42100
O2725       O  0.98471015  0.83250469  0.22436496    -0.78700
O2726       O  0.98417888  0.84111877  0.17594909    -0.97400
O2727       O  0.93628598  0.81086175  0.17255914    -0.90700
O2728       O  0.93734273  0.80715741  0.22935915    -0.93600
C2729       C  0.06619163  0.77734550  0.19866098     1.00200
C2730       C  0.98964952  0.72781384  0.24660919     1.13100
C2731       C  0.02019731  0.75929660  0.13122275     1.03900
O2732       O  0.99784472  0.83751956  0.11941137    -0.95700
O2733       O  0.94193885  0.83795560  0.13040470    -0.91500
O2734       O  0.93651998  0.86640299  0.16332612    -0.84600
C2735       C  0.93261686  0.85895942  0.14001512     1.10500
O2736       O  0.92524705  0.72708148  0.19724339    -0.97700
Zr2737     Zr  0.92817482  0.77388778  0.19781303     1.88900
O2738       O  0.89885548  0.83821700  0.20517170    -0.74300
O2739       O  0.95517165  0.78755700  0.10762799    -0.53600
O2740       O  0.90696863  0.75923609  0.15846627    -0.98300
O2741       O  0.90077820  0.75615958  0.23161634    -0.55500
O2742       O  0.88817009  0.79684254  0.19641924    -0.74900
C2743       C  0.88235601  0.82038827  0.20025730     0.97500
O2744       O  0.92865533  0.88591752  0.21574511    -0.63700
O2745       O  0.00743950  0.79350624  0.28793514    -0.58500
O2746       O  0.96230778  0.87255480  0.23613675    -0.95200
O2747       O  0.98395708  0.84705246  0.26432824    -0.93600
O2748       O  0.04554146  0.84656937  0.23726847    -0.93900
O2749       O  0.04666222  0.84129340  0.16053346    -0.92700
C2750       C  0.97684439  0.86998171  0.25590239     1.16300
H2751       H  0.02930909  0.78796031  0.23596959     0.32300
H2752       H  0.98681378  0.85715958  0.16698420     0.43100
H2753       H  0.92297676  0.81017259  0.24098303     0.36700
H2754       H  0.96189637  0.75479794  0.15766096     0.33100
H2755       H  0.04898101  0.87801688  0.19306468     0.24900
H2756       H  0.93625498  0.78885659  0.11031077     0.30900
H2757       H  0.90986122  0.77317543  0.14597342     0.36800
H2758       H  0.03503920  0.84089008  0.25212996     0.31200
H2759       H  0.02202909  0.78331809  0.28073864     0.30100
H2760       H  0.95579557  0.80192648  0.30326602     0.31800
H2761       H  0.89256721  0.77118511  0.24025651     0.30800
H2762       H  0.05707035  0.82598439  0.15560372     0.34800
H2763       H  0.93338901  0.89781422  0.20173646     0.27500
H2764       H  0.00815623  0.70615684  0.18639987     0.31700
H2765       H  0.90711217  0.72304189  0.19270240     0.34600
H2766       H  0.01462792  0.81094700  0.29064296     0.27200
H2767       H  0.90959696  0.88460793  0.21474334     0.40000
H2768       H  0.00637171  0.82672361  0.10600517     0.30100
H2769       H  0.01933970  0.88344805  0.18949481     0.37700
H2770       H  0.91301460  0.74939217  0.24453142     0.29600
H2771       H  0.95888527  0.79981682  0.09363721     0.29600
H2772       H  0.97884274  0.71293118  0.18216578     0.29900
Zr2773     Zr  0.05517248  0.59065560  0.19992388     2.17500
O2774       O  0.04766645  0.63082611  0.17704429    -0.52500
O2775       O  0.05096110  0.58507799  0.15317217    -0.75700
O2776       O  0.09607307  0.61188629  0.19205268    -0.82400
O2777       O  0.99218344  0.59518798  0.23868743    -0.84200
O2778       O  0.12652333  0.58060712  0.19170455    -0.79800
O2779       O  0.02362464  0.61981872  0.22059990    -0.91400
O2780       O  0.05812467  0.54323457  0.14264374    -0.77400
O2781       O  0.08364279  0.55642442  0.18901386    -0.86900
O2782       O  0.02709310  0.55468142  0.19232920    -0.86600
O2783       O  0.08416369  0.58660200  0.23616032    -0.73300
O2784       O  0.03367252  0.58075314  0.23902826    -0.85500
Zr2785     Zr  0.06256882  0.50773113  0.25622159     2.26400
Zr2786     Zr  0.11201246  0.55137198  0.22482524     2.06300
Zr2787     Zr  0.00446195  0.54650564  0.23246372     2.10000
Zr2788     Zr  0.05697371  0.52019487  0.18201360     1.78800
O2789       O  0.97050435  0.54227567  0.26490757    -0.94300
O2790       O  0.09505846  0.50296917  0.15990997    -0.42100
O2791       O  0.03415183  0.51331806  0.22071625    -0.78700
O2792       O  0.08639874  0.51364930  0.21704813    -0.97400
O2793       O  0.08900639  0.54388240  0.26369750    -0.90700
O2794       O  0.03290927  0.54097126  0.26857884    -0.93600
C2795       C  0.05447726  0.56666006  0.13674212     1.00200
C2796       C  0.00235002  0.61786097  0.23339863     1.13100
C2797       C  0.11764135  0.60233540  0.18423491     1.03900
O2798       O  0.14406309  0.52628817  0.20057025    -0.95700
O2799       O  0.13448130  0.52602655  0.25712130    -0.91500
O2800       O  0.10476043  0.49855301  0.27333078    -0.84600
C2801       C  0.12773152  0.50753189  0.27191774     1.10500
O2802       O  0.06304579  0.62387586  0.27934987    -0.97700
Zr2803     Zr  0.06061564  0.57722359  0.27553229     1.88900
O2804       O  0.05834123  0.50914082  0.30184006    -0.74300
O2805       O  0.14359272  0.58043513  0.24389665    -0.53600
O2806       O  0.09729459  0.59077608  0.30167929    -0.98300
O2807       O  0.02248028  0.59255501  0.29882539    -0.55500
O2808       O  0.06511279  0.55066460  0.31362854    -0.74900
C2809       C  0.06307767  0.52659380  0.31858304     0.97500
O2810       O  0.07217401  0.46178847  0.25399210    -0.63700
O2811       O  0.96693799  0.54650971  0.20414894    -0.58500
O2812       O  0.02575581  0.48055519  0.26194746    -0.95200
O2813       O  0.99918659  0.49644915  0.23159550    -0.93600
O2814       O  0.02230365  0.50416079  0.15461636    -0.93900
O2815       O  0.05313996  0.47365143  0.18039725    -0.92700
C2816       C  0.00871530  0.47698807  0.24467165     1.16300
H2817       H  0.01529720  0.55796492  0.17837143     0.32300
H2818       H  0.09743569  0.49898917  0.21364558     0.43100
H2819       H  0.02323821  0.53665789  0.28381293     0.36700
H2820       H  0.09427307  0.60198737  0.23867028     0.33100
H2821       H  0.08819547  0.49101897  0.14662768     0.24900
H2822       H  0.13778626  0.58267005  0.26199868     0.30900
H2823       H  0.08966950  0.60085314  0.31615252     0.36800
H2824       H  0.00627071  0.50769792  0.16454848     0.31200
H2825       H  0.96200349  0.56484669  0.20271851     0.30100
H2826       H  0.97934922  0.54167426  0.28175761     0.31800
H2827       H  0.02926195  0.60403402  0.31254799     0.30800
H2828       H  0.06869766  0.46740436  0.18949620     0.34800
H2829       H  0.08837050  0.46015480  0.24385386     0.27500
H2830       H  0.02871782  0.63281023  0.17516930     0.31700
H2831       H  0.08008251  0.62879295  0.27222545     0.34600
H2832       H  0.97357814  0.54164589  0.18684727     0.27200
H2833       H  0.07695604  0.45686448  0.27173799     0.40000
H2834       H  0.15437546  0.51689563  0.21346864     0.30100
H2835       H  0.10209942  0.51753603  0.15000588     0.37700
H2836       H  0.01603173  0.57735918  0.30816903     0.29600
H2837       H  0.15969156  0.57015725  0.24502796     0.29600
H2838       H  0.05304513  0.64482770  0.18894774     0.29900
Zr2839     Zr  0.04520094  0.34657620  0.31536924     2.17500
O2840       O  0.05500261  0.39201467  0.30947367    -0.52500
O2841       O  0.09248806  0.34089403  0.31510481    -0.75700
O2842       O  0.05203777  0.36689862  0.35718985    -0.82400
O2843       O  0.01516540  0.34548848  0.24813965    -0.84200
O2844       O  0.04740820  0.33534519  0.38618508    -0.79800
O2845       O  0.03353534  0.37232842  0.27790277    -0.91400
O2846       O  0.10133829  0.30023836  0.32803108    -0.77400
O2847       O  0.05048858  0.31439592  0.34697292    -0.86900
O2848       O  0.05732090  0.30884480  0.29098806    -0.86600
O2849       O  0.00374021  0.34496634  0.33729909    -0.73300
O2850       O  0.01017123  0.33372238  0.28913512    -0.85500
Zr2851     Zr  0.98740292  0.26405033  0.31603720     2.26400
Zr2852     Zr  0.00978107  0.31203775  0.36859269     2.06300
Zr2853     Zr  0.02169391  0.29848752  0.26247791     2.10000
Zr2854     Zr  0.06179185  0.27663669  0.32386820     1.78800
O2855       O  0.99641188  0.29091922  0.22366099    -0.94300
O2856       O  0.07812749  0.26084815  0.36490032    -0.42100
O2857       O  0.02779143  0.26742400  0.29498898    -0.78700
O2858       O  0.02131928  0.27264767  0.34641389    -0.97400
O2859       O  0.97535605  0.30149886  0.33992492    -0.90700
O2860       O  0.98043458  0.29512652  0.28342016    -0.93600
C2861       C  0.10827665  0.32281147  0.32155166     1.00200
C2862       C  0.02118084  0.36861464  0.25670146     1.13100
C2863       C  0.05833780  0.35607792  0.37832432     1.03900
O2864       O  0.01708791  0.29888110  0.41287912    -0.95700
O2865       O  0.97922816  0.28077785  0.38613012    -0.91500
O2866       O  0.96335867  0.25532763  0.35401994    -0.84600
C2867       C  0.96437579  0.26277638  0.37749596     1.10500
O2868       O  0.96392305  0.37923097  0.30681018    -0.97700
Zr2869     Zr  0.96880221  0.33276008  0.30833815     1.88900
O2870       O  0.94310019  0.26465941  0.30338824    -0.74300
O2871       O  0.98476247  0.34649948  0.38911079    -0.53600
O2872       O  0.93698320  0.34970055  0.33889968    -0.98300
O2873       O  0.95163476  0.34642222  0.26701807    -0.55500
O2874       O  0.93046055  0.30580734  0.31068152    -0.74900
C2875       C  0.92585555  0.28168424  0.30806807     0.97500
O2876       O  0.99238257  0.21865392  0.32641641    -0.63700
O2877       O  0.05789450  0.29834085  0.23230768    -0.58500
O2878       O  0.98879467  0.23346008  0.28102311    -0.95200
O2879       O  0.02279805  0.24869733  0.25847299    -0.93600
O2880       O  0.08881257  0.25859628  0.28960708    -0.93900
O2881       O  0.06775267  0.23026761  0.32634235    -0.92700
C2882       C  0.00831728  0.22959014  0.26640976     1.16300
H2883       H  0.07312430  0.31114974  0.28123639     0.32300
H2884       H  0.02221097  0.25869565  0.35865210     0.43100
H2885       H  0.96730403  0.29025050  0.27116570     0.36700
H2886       H  0.00007440  0.36131580  0.34534067     0.33100
H2887       H  0.09159926  0.27326378  0.37023108     0.24900
H2888       H  0.96653423  0.34223653  0.38531342     0.30900
H2889       H  0.93462526  0.33596798  0.35175089     0.36800
H2890       H  0.10578643  0.25545891  0.29777101     0.31200
H2891       H  0.06713640  0.28204974  0.23579307     0.30100
H2892       H  0.98844466  0.30778500  0.21986980     0.31800
H2893       H  0.93367784  0.33988976  0.26674737     0.30800
H2894       H  0.05305957  0.22420538  0.33693022     0.34800
H2895       H  0.97474896  0.21128589  0.32542930     0.27500
H2896       H  0.07102425  0.39523271  0.31936515     0.31700
H2897       H  0.98184381  0.38585542  0.30735530     0.34600
H2898       H  0.04990013  0.29552193  0.21519392     0.27200
H2899       H  0.99689141  0.21819841  0.34490662     0.40000
H2900       H  0.02920962  0.28415416  0.41144199     0.30100
H2901       H  0.06391729  0.26371235  0.37746076     0.37700
H2902       H  0.96090769  0.33584519  0.25394478     0.29600
H2903       H  0.98651423  0.34347045  0.40782823     0.29600
H2904       H  0.04132039  0.40143094  0.31916710     0.29900
Zr2905     Zr  0.72623508  0.25717989  0.43382159     2.17500
O2906       O  0.67995460  0.26785999  0.43224579    -0.52500
O2907       O  0.72402539  0.28839488  0.46989905    -0.75700
O2908       O  0.69958742  0.22844977  0.45532379    -0.82400
O2909       O  0.72989795  0.27309410  0.36202748    -0.84200
O2910       O  0.72276851  0.22865650  0.49209645    -0.79800
O2911       O  0.70529577  0.27854542  0.39790979    -0.91400
O2912       O  0.75072428  0.31936023  0.45673372    -0.77400
O2913       O  0.75881908  0.26576785  0.46262320    -0.86900
O2914       O  0.75530947  0.28428764  0.41176392    -0.86600
O2915       O  0.74364347  0.21518606  0.44576793    -0.73300
O2916       O  0.74096792  0.23121583  0.39791562    -0.85500
Zr2917     Zr  0.82209334  0.22995391  0.42159122     2.26400
Zr2918     Zr  0.77323281  0.22711291  0.47890888     2.06300
Zr2919     Zr  0.77142987  0.25856194  0.37702444     2.10000
Zr2920     Zr  0.78705140  0.29392377  0.44286211     1.78800
O2921       O  0.76259141  0.23323251  0.33825188    -0.94300
O2922       O  0.80544108  0.31160382  0.48237197    -0.42100
O2923       O  0.80473603  0.27010942  0.40721097    -0.78700
O2924       O  0.80404016  0.25443685  0.45713308    -0.97400
O2925       O  0.79272612  0.20211937  0.44367852    -0.90700
O2926       O  0.79130923  0.21940759  0.38963311    -0.93600
C2927       C  0.73456532  0.31053966  0.47284940     1.00200
C2928       C  0.71011958  0.28219434  0.37393513     1.13100
C2929       C  0.70022685  0.22743949  0.47958916     1.03900
O2930       O  0.77377787  0.24413746  0.52277564    -0.95700
O2931       O  0.82147311  0.22394502  0.49432383    -0.91500
O2932       O  0.84833745  0.22548310  0.45927799    -0.84600
C2933       C  0.84477736  0.22469600  0.48364362     1.10500
O2934       O  0.72097949  0.16918722  0.41232243    -0.97700
Zr2935     Zr  0.76215982  0.19177902  0.41071870     1.88900
O2936       O  0.83417201  0.18824109  0.40340060    -0.74300
O2937       O  0.77173539  0.18496761  0.49940787    -0.53600
O2938       O  0.76544893  0.15270822  0.43595278    -0.98300
O2939       O  0.75051559  0.17863569  0.36703077    -0.55500
O2940       O  0.79756361  0.16727892  0.39217133    -0.74900
C2941       C  0.82213858  0.17006494  0.39160763     0.97500
O2942       O  0.86867918  0.23730254  0.42482940    -0.63700
O2943       O  0.77689459  0.29942348  0.35507284    -0.58500
O2944       O  0.84136759  0.24514094  0.38185948    -0.95200
O2945       O  0.81150115  0.26008714  0.35367628    -0.93600
O2946       O  0.78761585  0.33269861  0.41669098    -0.93900
O2947       O  0.83127761  0.31052705  0.44348459    -0.92700
C2948       C  0.83462939  0.25436649  0.36005519     1.16300
H2949       H  0.74738371  0.30002833  0.40604984     0.32300
H2950       H  0.81725820  0.26067695  0.46866462     0.43100
H2951       H  0.79904920  0.21161806  0.37447098     0.36700
H2952       H  0.73284624  0.20185227  0.45292785     0.33100
H2953       H  0.79499349  0.32710408  0.48646740     0.24900
H2954       H  0.75499042  0.18472428  0.50873167     0.30900
H2955       H  0.76279464  0.13847637  0.42340326     0.36800
H2956       H  0.79163760  0.32662838  0.39896625     0.31200
H2957       H  0.77160502  0.29596227  0.33704387     0.30100
H2958       H  0.75504251  0.24556078  0.32595393     0.31800
H2959       H  0.73223584  0.18387873  0.36492172     0.30800
H2960       H  0.83554129  0.31469273  0.42538318     0.34800
H2961       H  0.87139632  0.25555126  0.42030567     0.27500
H2962       H  0.67410546  0.27037928  0.45031205     0.31700
H2963       H  0.70784111  0.18296340  0.41435810     0.34600
H2964       H  0.76323818  0.31093466  0.36211081     0.27200
H2965       H  0.87680242  0.22725714  0.41059232     0.40000
H2966       H  0.76954411  0.22923275  0.53370473     0.30100
H2967       H  0.80107181  0.29905891  0.49587752     0.37700
H2968       H  0.75017290  0.15960400  0.36733331     0.29600
H2969       H  0.76953712  0.17240666  0.48511229     0.29600
H2970       H  0.67072062  0.25235037  0.42595843     0.29900
Zr2971     Zr  0.47550894  0.32241247  0.50700230     2.17500
O2972       O  0.43443731  0.34232441  0.49512788    -0.52500
O2973       O  0.46210304  0.29318835  0.53999353    -0.75700
O2974       O  0.44807047  0.29338491  0.48488610    -0.82400
O2975       O  0.48693159  0.38489731  0.54013633    -0.84200
O2976       O  0.47262049  0.25751570  0.48864347    -0.79800
O2977       O  0.45548768  0.35512395  0.53334352    -0.91400
O2978       O  0.49293356  0.29559798  0.57093265    -0.77400
O2979       O  0.50296076  0.28776647  0.52010543    -0.86900
O2980       O  0.50530920  0.33931206  0.53778246    -0.86600
O2981       O  0.49441716  0.30450032  0.46816989    -0.73300
O2982       O  0.49586623  0.35657814  0.48460296    -0.85500
Zr2983     Zr  0.57314370  0.32372505  0.48626071     2.26400
Zr2984     Zr  0.52206419  0.26990749  0.48210687     2.06300
Zr2985     Zr  0.52609332  0.37325730  0.51533382     2.10000
Zr2986     Zr  0.53317751  0.30616082  0.54926717     1.78800
O2987       O  0.51839259  0.40930210  0.48674398    -0.94300
O2988       O  0.54132255  0.26339744  0.56644349    -0.42100
O2989       O  0.55569780  0.33941093  0.52670828    -0.78700
O2990       O  0.55246156  0.29031302  0.51094884    -0.97400
O2991       O  0.54333823  0.30341785  0.45745870    -0.90700
O2992       O  0.54482128  0.35824079  0.47582214    -0.93600
C2993       C  0.47164569  0.28700114  0.56172295     1.00200
C2994       C  0.46455857  0.37497360  0.54490675     1.13100
C2995       C  0.44975409  0.26922740  0.48719821     1.03900
O2996       O  0.51852710  0.22519175  0.49492255    -0.95700
O2997       O  0.56917021  0.25054324  0.48370554    -0.91500
O2998       O  0.59725747  0.28405079  0.48687267    -0.84600
C2999       C  0.59285420  0.25990254  0.48622515     1.10500
O3000       O  0.47034595  0.33984163  0.43260249    -0.97700
Zr3001     Zr  0.51534646  0.33845765  0.44638680     1.88900
O3002       O  0.58642102  0.34510541  0.44654757    -0.74300
O3003       O  0.52009649  0.25282304  0.43828220    -0.53600
O3004       O  0.51856364  0.31129134  0.40789636    -0.98300
O3005       O  0.50091610  0.37682464  0.42395738    -0.55500
O3006       O  0.55127276  0.35669125  0.42370727    -0.74900
C3007       C  0.57558224  0.35684470  0.42781291     0.97500
O3008       O  0.61971981  0.31906672  0.47798566    -0.63700
O3009       O  0.53019259  0.40844773  0.54675642    -0.58500
O3010       O  0.59700292  0.35496928  0.51073137    -0.95200
O3011       O  0.57045276  0.38763349  0.52305472    -0.93600
O3012       O  0.53591533  0.33530781  0.58628776    -0.93900
O3013       O  0.57350626  0.29854001  0.57209409    -0.92700
C3014       C  0.59289623  0.37736720  0.52025833     1.16300
H3015       H  0.49785193  0.34383427  0.55447702     0.32300
H3016       H  0.56446460  0.27853429  0.51882002     0.43100
H3017       H  0.55367788  0.37295285  0.46883277     0.36700
H3018       H  0.48208455  0.29749695  0.45596626     0.33100
H3019       H  0.52445339  0.25727232  0.57296365     0.24900
H3020       H  0.51915610  0.23394978  0.44036937     0.30900
H3021       H  0.52851231  0.32148063  0.39529678     0.36800
H3022       H  0.54836997  0.34868094  0.58095999     0.31200
H3023       H  0.54177829  0.40202009  0.56042874     0.30100
H3024       H  0.53159930  0.42221224  0.49155657     0.31800
H3025       H  0.50673885  0.37437177  0.40587953     0.30800
H3026       H  0.58471988  0.31317400  0.56742202     0.34800
H3027       H  0.62166768  0.31356110  0.45970446     0.27500
H3028       H  0.42060399  0.32977202  0.49885875     0.31700
H3029       H  0.46989709  0.32996736  0.41618395     0.34600
H3030       H  0.54000643  0.42229923  0.53821846     0.27200
H3031       H  0.62708058  0.33659043  0.47828121     0.40000
H3032       H  0.51384352  0.22610327  0.51344048     0.30100
H3033       H  0.54486837  0.25233661  0.55116318     0.37700
H3034       H  0.51184223  0.39089512  0.43083897     0.29600
H3035       H  0.50271670  0.25778721  0.43209406     0.29600
H3036       H  0.43496648  0.34356218  0.47609658     0.29900
Zr3037     Zr  0.31562855  0.24226713  0.58369117     2.17500
O3038       O  0.36097528  0.23077860  0.59056067    -0.52500
O3039       O  0.33512834  0.27743100  0.60904370    -0.75700
O3040       O  0.34302241  0.24547088  0.54614775    -0.82400
O3041       O  0.29927994  0.21453008  0.64835911    -0.84200
O3042       O  0.31957185  0.25897116  0.51189470    -0.79800
O3043       O  0.32499049  0.20748834  0.61361317    -0.91400
O3044       O  0.30816666  0.31176605  0.60986071    -0.77400
O3045       O  0.29436672  0.27730567  0.56271330    -0.86900
O3046       O  0.28805752  0.25979972  0.61609391    -0.86600
O3047       O  0.29351338  0.22509752  0.54599115    -0.73300
O3048       O  0.28736313  0.20785292  0.59497963    -0.85500
Zr3049     Zr  0.21488594  0.24563775  0.57285045     2.26400
Zr3050     Zr  0.27076654  0.26014883  0.52577085     2.06300
Zr3051     Zr  0.25937233  0.22596851  0.62730241     2.10000
Zr3052     Zr  0.26728953  0.29509604  0.59592004     1.78800
O3053       O  0.25320966  0.18161910  0.64015624    -0.94300
O3054       O  0.27471861  0.33548475  0.57376551    -0.42100
O3055       O  0.23780171  0.26253248  0.60936622    -0.78700
O3056       O  0.24420666  0.27944906  0.55941076    -0.97400
O3057       O  0.24239236  0.22726781  0.53988400    -0.90700
O3058       O  0.23716348  0.20945778  0.59078469    -0.93600
C3059       C  0.32912756  0.30050295  0.61616517     1.00200
C3060       C  0.31932079  0.20470971  0.63756945     1.13100
C3061       C  0.34175276  0.25238164  0.52262653     1.03900
O3062       O  0.27078325  0.30165515  0.50450172    -0.95700
O3063       O  0.22241722  0.25795611  0.50866492    -0.91500
O3064       O  0.19864811  0.27369415  0.54117265    -0.84600
C3065       C  0.19971271  0.26511077  0.51837342     1.10500
O3066       O  0.30351607  0.16610191  0.55219766    -0.97700
Zr3067     Zr  0.26432484  0.19182725  0.55842112     1.88900
O3068       O  0.19882044  0.21532545  0.54050121    -0.74300
O3069       O  0.27466075  0.24095591  0.48286334    -0.53600
O3070       O  0.26680590  0.17617233  0.51409432    -0.98300
O3071       O  0.25732268  0.15084872  0.57993217    -0.55500
O3072       O  0.21985797  0.17927353  0.55102479    -0.74900
C3073       C  0.20455076  0.19167829  0.53650280     0.97500
O3074       O  0.17492014  0.26673735  0.58692022    -0.63700
O3075       O  0.25931241  0.23882944  0.67259206    -0.58500
O3076       O  0.18793526  0.22411778  0.60419910    -0.95200
O3077       O  0.21374036  0.23283633  0.63709434    -0.93600
O3078       O  0.26194142  0.30845263  0.64094377    -0.93900
O3079       O  0.22856685  0.32188078  0.59896897    -0.92700
C3080       C  0.19614618  0.21897899  0.62678709     1.16300
H3081       H  0.29687030  0.26476842  0.63173109     0.32300
H3082       H  0.23574611  0.29452338  0.55253644     0.43100
H3083       H  0.22590712  0.19573061  0.59572705     0.36700
H3084       H  0.30554213  0.21721742  0.53397797     0.33100
H3085       H  0.27642582  0.34853202  0.58770922     0.24900
H3086       H  0.27609392  0.22226086  0.48597922     0.30900
H3087       H  0.25860107  0.15900411  0.51448343     0.36800
H3088       H  0.27849748  0.30445776  0.64956229     0.31200
H3089       H  0.25281031  0.25675429  0.67272223     0.30100
H3090       H  0.25857974  0.18129194  0.65845035     0.31800
H3091       H  0.25468698  0.13826991  0.56570836     0.30800
H3092       H  0.23218332  0.33501394  0.61242894     0.34800
H3093       H  0.16162943  0.26147320  0.57424401     0.27500
H3094       H  0.37153196  0.24552786  0.58484642     0.31700
H3095       H  0.30225133  0.15115411  0.56374286     0.34600
H3096       H  0.24529450  0.22870670  0.68058317     0.27200
H3097       H  0.17752258  0.28535473  0.58411186     0.40000
H3098       H  0.26102426  0.31329092  0.51626003     0.30100
H3099       H  0.29232044  0.33387325  0.56631790     0.37700
H3100       H  0.24019579  0.15223196  0.58842801     0.29600
H3101       H  0.25743896  0.24311501  0.47490054     0.29600
H3102       H  0.36499990  0.21652752  0.57834629     0.29900
Zr3103     Zr  0.97490461  0.15871903  0.49766746     2.17500
O3104       O  0.93414105  0.14299861  0.51526605    -0.52500
O3105       O  0.95198440  0.18328842  0.46599546    -0.75700
O3106       O  0.95548935  0.19069656  0.52443378    -0.82400
O3107       O  0.98301333  0.09081945  0.47324644    -0.84200
O3108       O  0.97405382  0.22540682  0.50738786    -0.79800
O3109       O  0.95290199  0.12234397  0.47824496    -0.91400
O3110       O  0.97323655  0.17347667  0.42932210    -0.77400
O3111       O  0.99575036  0.19368015  0.47607890    -0.86900
O3112       O  0.99809419  0.14078087  0.46188752    -0.86600
O3113       O  0.00321367  0.17901608  0.52923930    -0.73300
O3114       O  0.00226908  0.12761567  0.51745522    -0.85500
Zr3115     Zr  0.07484462  0.16174281  0.48943943     2.26400
Zr3116     Zr  0.02367487  0.21416493  0.50662818     2.06300
Zr3117     Zr  0.02508413  0.10955228  0.48125425     2.10000
Zr3118     Zr  0.01871169  0.17501518  0.44083434     1.78800
O3119       O  0.02700671  0.07476117  0.51215294    -0.94300
O3120       O  0.01532492  0.21800193  0.42282801    -0.42100
O3121       O  0.04675780  0.14299546  0.45810163    -0.78700
O3122       O  0.04728638  0.19446507  0.47142128    -0.97400
O3123       O  0.05279689  0.18256672  0.52453334    -0.90700
O3124       O  0.05432225  0.12761421  0.51148267    -0.93600
C3125       C  0.95525531  0.18516889  0.44172442     1.00200
C3126       C  0.96063737  0.10058426  0.46916867     1.13100
C3127       C  0.95332462  0.21321345  0.51571123     1.03900
O3128       O  0.02121619  0.25187179  0.47931818    -0.95700
O3129       O  0.07082493  0.23272144  0.50608540    -0.91500
O3130       O  0.09868445  0.20050421  0.49482756    -0.84600
C3131       C  0.09433019  0.22399302  0.50062667     1.10500
O3132       O  0.00169519  0.15055605  0.58212287    -0.97700
Zr3133     Zr  0.03242817  0.14805061  0.54640419     1.88900
O3134       O  0.10236655  0.14303055  0.52245995    -0.74300
O3135       O  0.02036157  0.24169704  0.54478980    -0.53600
O3136       O  0.04659312  0.17375055  0.58326251    -0.98300
O3137       O  0.02683471  0.10444900  0.56227703    -0.55500
O3138       O  0.07667997  0.13771717  0.55750605    -0.74900
C3139       C  0.09860155  0.13632481  0.54589551     0.97500
O3140       O  0.11598003  0.17167075  0.46871294    -0.63700
O3141       O  0.02718694  0.07779748  0.44632943    -0.58500
O3142       O  0.08926667  0.12928568  0.45882548    -0.95200
O3143       O  0.06660344  0.09325725  0.46752802    -0.93600
O3144       O  0.01239661  0.15256427  0.39994173    -0.93900
O3145       O  0.05535833  0.17845404  0.41142746    -0.92700
C3146       C  0.08596352  0.10494675  0.45788107     1.16300
H3147       H  0.98769485  0.13301356  0.44854831     0.32300
H3148       H  0.05761297  0.20712055  0.46273822     0.43100
H3149       H  0.06563508  0.11380101  0.51660722     0.36700
H3150       H  0.99444076  0.18605898  0.54419808     0.33100
H3151       H  0.00398521  0.22762988  0.43494759     0.24900
H3152       H  0.01236454  0.25773931  0.53843034     0.30900
H3153       H  0.05230733  0.16114870  0.59624644     0.36800
H3154       H  0.01369618  0.13410734  0.40424085     0.31200
H3155       H  0.01797367  0.06244767  0.45268492     0.30100
H3156       H  0.04270639  0.06488493  0.50723593     0.31800
H3157       H  0.00792687  0.10205695  0.56405875     0.30800
H3158       H  0.06682301  0.16383689  0.41570202     0.34800
H3159       H  0.12792984  0.15747200  0.47312748     0.27500
H3160       H  0.92059029  0.15364034  0.50710589     0.31700
H3161       H  0.98473350  0.14660185  0.57425360     0.34600
H3162       H  0.01600076  0.08476968  0.43260696     0.27200
H3163       H  0.11314419  0.17003734  0.44989635     0.40000
H3164       H  0.03902650  0.25446875  0.47281799     0.30100
H3165       H  0.03260657  0.22576949  0.42526132     0.37700
H3166       H  0.03337704  0.10499129  0.58018091     0.29600
H3167       H  0.00664841  0.23371902  0.55537016     0.29600
H3168       H  0.93384707  0.14807928  0.53370918     0.29900
C3169       C  0.16702135  0.24025357  0.48911967    -0.14500
C3170       C  0.17244337  0.25993678  0.50705128     0.07700
C3171       C  0.15017853  0.27122317  0.51931903    -0.14500
C3172       C  0.12454905  0.26145285  0.51622720    -0.14500
C3173       C  0.11964547  0.23992546  0.50035564     0.07700
C3174       C  0.14147333  0.23055361  0.48594786    -0.14500
H3175       H  0.18261778  0.23136349  0.47837517     0.11700
H3176       H  0.15276587  0.28688491  0.53298024     0.11700
H3177       H  0.10896569  0.26979483  0.52756682     0.11700
H3178       H  0.13910662  0.21461518  0.47263574     0.11700
C3179       C  0.40106379  0.26673475  0.47685789    -0.14500
C3180       C  0.42277009  0.25709586  0.49084554     0.07700
C3181       C  0.41646564  0.24356617  0.51326961    -0.14500
C3182       C  0.39049178  0.24127694  0.52211967    -0.14500
C3183       C  0.36880123  0.25227332  0.50915705     0.07700
C3184       C  0.37481712  0.26421476  0.48557935    -0.14500
H3185       H  0.40456018  0.27789668  0.45971127     0.11700
H3186       H  0.43177444  0.23614953  0.52511191     0.11700
H3187       H  0.38767978  0.23144842  0.54014318     0.11700
H3188       H  0.35946998  0.27292569  0.47452678     0.11700
C3189       C  0.87843525  0.20857981  0.51656724    -0.14500
C3190       C  0.87045747  0.22661421  0.49831750     0.07700
C3191       C  0.88999276  0.24365000  0.48922901    -0.14500
C3192       C  0.91647965  0.24149735  0.49643877    -0.14500
C3193       C  0.92487932  0.22191265  0.51294493     0.07700
C3194       C  0.90484479  0.20649457  0.52383961    -0.14500
H3195       H  0.86466032  0.19482558  0.52390781     0.11700
H3196       H  0.88494111  0.25799030  0.47512209     0.11700
H3197       H  0.93044504  0.25431802  0.48792203     0.11700
H3198       H  0.90976193  0.19136593  0.53711084     0.11700
C3199       C  0.65265702  0.21543276  0.47489231    -0.14500
C3200       C  0.67231173  0.22735463  0.49032059     0.07700
C3201       C  0.66323510  0.24615691  0.50792844    -0.14500
C3202       C  0.63675830  0.25413946  0.50824944    -0.14500
C3203       C  0.61783367  0.24418545  0.49080015     0.07700
C3204       C  0.62631277  0.22381728  0.47479539    -0.14500
H3205       H  0.65832825  0.20120659  0.46051539     0.11700
H3206       H  0.67697285  0.25660936  0.51970702     0.11700
H3207       H  0.63146336  0.26993830  0.52101777     0.11700
H3208       H  0.61322111  0.21573985  0.46064820     0.11700
C3209       C  0.93453787  0.20404396  0.40356690    -0.14500
C3210       C  0.94287327  0.20662100  0.42902479     0.07700
C3211       C  0.94929856  0.23097700  0.43887431    -0.14500
C3212       C  0.95272283  0.25142054  0.42227625    -0.14500
C3213       C  0.94924552  0.24752331  0.39580772     0.07700
C3214       C  0.93709885  0.22478268  0.38704454    -0.14500
H3215       H  0.92941506  0.18534780  0.39572219     0.11700
H3216       H  0.95654850  0.23304682  0.45830322     0.11700
H3217       H  0.96161397  0.26881601  0.42967695     0.11700
H3218       H  0.93328855  0.22151331  0.36678112     0.11700
C3219       C  0.89790487  0.24804537  0.32583743    -0.14500
C3220       C  0.89991448  0.27227406  0.31427449     0.07700
C3221       C  0.87839709  0.28878316  0.31424127    -0.14500
C3222       C  0.85591980  0.28195606  0.32748126    -0.14500
C3223       C  0.85526882  0.25903169  0.34146740     0.07700
C3224       C  0.87595987  0.24170747  0.33978893    -0.14500
H3225       H  0.91418406  0.23490406  0.32616983     0.11700
H3226       H  0.87954926  0.30752911  0.30544077     0.11700
H3227       H  0.83994196  0.29545550  0.32855297     0.11700
H3228       H  0.87562779  0.22380286  0.35028279     0.11700
C3229       C  0.98589068  0.43318148  0.24948463    -0.14500
C3230       C  0.00498244  0.44857137  0.23780761     0.07700
C3231       C  0.02651195  0.43515262  0.22727258    -0.14500
C3232       C  0.03035098  0.40841591  0.23058144    -0.14500
C3233       C  0.01229478  0.39330089  0.24379734     0.07700
C3234       C  0.98929251  0.40604640  0.25195701    -0.14500
H3235       H  0.96932624  0.44231671  0.25860384     0.11700
H3236       H  0.04208474  0.44590919  0.21884104     0.11700
H3237       H  0.04864969  0.39998222  0.22469085     0.11700
H3238       H  0.97478949  0.39540125  0.26229955     0.11700
C3239       C  0.00470509  0.68529794  0.26512476    -0.14500
C3240       C  0.98505736  0.69942572  0.25283499     0.07700
C3241       C  0.96802895  0.68457945  0.23716754    -0.14500
C3242       C  0.97147052  0.65749879  0.23286203    -0.14500
C3243       C  0.99210065  0.64376900  0.24416139     0.07700
C3244       C  0.00800426  0.65837910  0.26099250    -0.14500
H3245       H  0.01920756  0.69553684  0.27616062     0.11700
H3246       H  0.95343826  0.69440636  0.22606465     0.11700
H3247       H  0.95924307  0.64781125  0.21894927     0.11700
H3248       H  0.02454953  0.64928814  0.26958452     0.11700
C3249       C  0.83835306  0.12254421  0.33782526    -0.14500
C3250       C  0.86491741  0.12695074  0.33436515     0.07700
C3251       C  0.87744461  0.14437501  0.35105643    -0.14500
C3252       C  0.86386418  0.15709563  0.37067885    -0.14500
C3253       C  0.83723620  0.15304793  0.37399305     0.07700
C3254       C  0.82463713  0.13551436  0.35738597    -0.14500
H3255       H  0.82816807  0.10915381  0.32539333     0.11700
H3256       H  0.89796570  0.14798947  0.34925427     0.11700
H3257       H  0.87419189  0.17064559  0.38282204     0.11700
H3258       H  0.80402869  0.13225919  0.35906332     0.11700
C3259       C  0.01065129  0.93587542  0.25529037    -0.14500
C3260       C  0.99347791  0.95192131  0.26940382     0.07700
C3261       C  0.97368706  0.93903772  0.28306524    -0.14500
C3262       C  0.97019002  0.91189566  0.28149833    -0.14500
C3263       C  0.98668612  0.89584867  0.26661699     0.07700
C3264       C  0.00752836  0.90857539  0.25427565    -0.14500
H3265       H  0.02538860  0.94455932  0.24336513     0.11700
H3266       H  0.95911931  0.95033793  0.29303120     0.11700
H3267       H  0.95311132  0.90371095  0.29026616     0.11700
H3268       H  0.02032050  0.89758373  0.24192265     0.11700
C3269       C  0.02439781  0.16150449  0.28754461    -0.14500
C3270       C  0.01100869  0.14586307  0.26971090     0.07700
C3271       C  0.00111627  0.15840741  0.24772561    -0.14500
C3272       C  0.00297944  0.18549515  0.24456518    -0.14500
C3273       C  0.01534937  0.20127402  0.26302702     0.07700
C3274       C  0.02681125  0.18844807  0.28406092    -0.14500
H3275       H  0.03113515  0.15326906  0.30539269     0.11700
H3276       H  0.98964725  0.14755373  0.23406802     0.11700
H3277       H  0.99279824  0.19431615  0.22874201     0.11700
H3278       H  0.03546287  0.19971271  0.29937544     0.11700
C3279       C  0.93189112  0.10019549  0.40421759    -0.14500
C3280       C  0.94004124  0.07598847  0.39516632     0.07700
C3281       C  0.94887642  0.05771315  0.41286661    -0.14500
C3282       C  0.95204480  0.06445158  0.43877072    -0.14500
C3283       C  0.94617554  0.08948624  0.44741057     0.07700
C3284       C  0.93453394  0.10674658  0.43020210    -0.14500
H3285       H  0.92456083  0.11446055  0.39102573     0.11700
H3286       H  0.95508480  0.03879462  0.40639032     0.11700
H3287       H  0.96140161  0.05092572  0.45146583     0.11700
H3288       H  0.93023221  0.12637331  0.43605939     0.11700
C3289       C  0.17767647  0.31130612  0.30234285    -0.14500
C3290       C  0.18719008  0.33647254  0.30199609     0.07700
C3291       C  0.17220223  0.35640780  0.31317676    -0.14500
C3292       C  0.14684163  0.35188544  0.32123311    -0.14500
C3293       C  0.13643460  0.32713513  0.31925679     0.07700
C3294       C  0.15267861  0.30659229  0.31150039    -0.14500
H3295       H  0.18874014  0.29567912  0.29374084     0.11700
H3296       H  0.17892454  0.37611739  0.31291749     0.11700
H3297       H  0.13492445  0.36798680  0.32738574     0.11700
H3298       H  0.14523438  0.28719232  0.31005905     0.11700
C3299       C  0.19149970  0.47819571  0.28630110    -0.14500
C3300       C  0.18275654  0.45468024  0.29605911     0.07700
C3301       C  0.15783911  0.45314171  0.30639141    -0.14500
C3302       C  0.14033122  0.47303698  0.30222524    -0.14500
C3303       C  0.14762272  0.49413733  0.28706470     0.07700
C3304       C  0.17391545  0.49799470  0.28175016    -0.14500
H3305       H  0.21049976  0.47953854  0.27759098     0.11700
H3306       H  0.15085329  0.43518615  0.31413962     0.11700
H3307       H  0.12033069  0.47008143  0.30766265     0.11700
H3308       H  0.18024308  0.51435950  0.27067219     0.11700
C3309       C  0.08698879  0.52832460  0.38629434    -0.14500
C3310       C  0.09791340  0.50360181  0.38755692     0.07700
C3311       C  0.09178861  0.48506387  0.36888816    -0.14500
C3312       C  0.07712028  0.49194913  0.34768813    -0.14500
C3313       C  0.06929166  0.51770184  0.34454001     0.07700
C3314       C  0.07291137  0.53544403  0.36471043    -0.14500
H3315       H  0.09118976  0.54277497  0.40088352     0.11700
H3316       H  0.09950706  0.46570826  0.36999215     0.11700
H3317       H  0.07423370  0.47766092  0.33262119     0.11700
H3318       H  0.06670502  0.55525482  0.36291180     0.11700
C3319       C  0.24083384  0.47248112  0.35018967    -0.14500
C3320       C  0.25131492  0.45593147  0.36934916     0.07700
C3321       C  0.27179467  0.43998134  0.36116500    -0.14500
C3322       C  0.27969258  0.43911957  0.33477414    -0.14500
C3323       C  0.26759477  0.45408838  0.31514164     0.07700
C3324       C  0.24886896  0.47174214  0.32392273    -0.14500
H3325       H  0.22525400  0.48554830  0.35535750     0.11700
H3326       H  0.28058388  0.42691923  0.37468505     0.11700
H3327       H  0.29441331  0.42517888  0.32940722     0.11700
H3328       H  0.23929351  0.48402119  0.31031711     0.11700
C3329       C  0.10202056  0.38033234  0.43268381    -0.14500
C3330       C  0.12153824  0.39298243  0.41863773     0.07700
C3331       C  0.12099151  0.39116103  0.39155240    -0.14500
C3332       C  0.10058581  0.37891172  0.37891103    -0.14500
C3333       C  0.08035642  0.36750356  0.39282791     0.07700
C3334       C  0.08176226  0.36745198  0.41987789    -0.14500
H3335       H  0.10180004  0.38127860  0.45354358     0.11700
H3336       H  0.13565789  0.40036074  0.37992844     0.11700
H3337       H  0.10038533  0.37875387  0.35804410     0.11700
H3338       H  0.06663275  0.35850544  0.43109027     0.11700
C3339       C  0.26986863  0.48033707  0.60562442    -0.14500
C3340       C  0.24956524  0.47354448  0.62295331     0.07700
C3341       C  0.22956169  0.45883800  0.61158962    -0.14500
C3342       C  0.22914218  0.45308613  0.58439422    -0.14500
C3343       C  0.24849061  0.46176379  0.56673116     0.07700
C3344       C  0.26933195  0.47475785  0.57854742    -0.14500
H3345       H  0.28541906  0.49234362  0.61273147     0.11700
H3346       H  0.21290480  0.45383984  0.62317341     0.11700
H3347       H  0.21190152  0.44415916  0.57665053     0.11700
H3348       H  0.28405467  0.48319689  0.56643137     0.11700
C3349       C  0.26709397  0.50625120  0.09121070    -0.14500
C3350       C  0.25646854  0.49470093  0.06837856     0.07700
C3351       C  0.24184713  0.47240734  0.07250314    -0.14500
C3352       C  0.23974523  0.46126228  0.09739274    -0.14500
C3353       C  0.25195483  0.47171445  0.11993136     0.07700
C3354       C  0.26493138  0.49514780  0.11623672    -0.14500
H3355       H  0.27858170  0.52352033  0.08954512     0.11700
H3356       H  0.23305130  0.46269743  0.05629913     0.11700
H3357       H  0.22897836  0.44351101  0.09865404     0.11700
H3358       H  0.27452416  0.50434437  0.13237928     0.11700
C3359       C  0.23363329  0.50413695  0.86616058    -0.14500
C3360       C  0.25562804  0.49021574  0.87378256     0.07700
C3361       C  0.26758624  0.47480045  0.85410937    -0.14500
C3362       C  0.25960797  0.47503732  0.82787098    -0.14500
C3363       C  0.23936492  0.49098715  0.81966157     0.07700
C3364       C  0.22573706  0.50444792  0.83982530    -0.14500
H3365       H  0.22366792  0.51634257  0.88005877     0.11700
H3366       H  0.28438835  0.46332065  0.85878331     0.11700
H3367       H  0.27056933  0.46408262  0.81379335     0.11700
H3368       H  0.20997727  0.51720811  0.83484246     0.11700
C3369       C  0.33930115  0.33922151  0.64358257    -0.14500
C3370       C  0.34555626  0.31399266  0.63536402     0.07700
C3371       C  0.36442410  0.30032480  0.64898009    -0.14500
C3372       C  0.37610770  0.31123817  0.67069770    -0.14500
C3373       C  0.36939900  0.33619148  0.67930126     0.07700
C3374       C  0.35105855  0.35017223  0.66531875    -0.14500
H3375       H  0.32470459  0.35029119  0.63366735     0.11700
H3376       H  0.36944825  0.28076604  0.64351889     0.11700
H3377       H  0.39036715  0.29996279  0.68085314     0.11700
H3378       H  0.34586462  0.36960060  0.67108980     0.11700
C3379       C  0.37530744  0.49142603  0.80161846    -0.14500
C3380       C  0.36723723  0.46581822  0.79797692     0.07700
C3381       C  0.34076146  0.46039035  0.79627269    -0.14500
C3382       C  0.32314346  0.48038380  0.79385351    -0.14500
C3383       C  0.33179382  0.50583673  0.79345086     0.07700
C3384       C  0.35761554  0.51145269  0.79893542    -0.14500
H3385       H  0.39561456  0.49617305  0.80313150     0.11700
H3386       H  0.33403520  0.44084262  0.79353202     0.11700
H3387       H  0.30352841  0.47581000  0.78838097     0.11700
H3388       H  0.36451033  0.53109498  0.79838099     0.11700
C3389       C  0.41105019  0.40855395  0.87054108    -0.14500
C3390       C  0.43440358  0.41853801  0.86117457     0.07700
C3391       C  0.44438300  0.44118140  0.87247605    -0.14500
C3392       C  0.43041425  0.45437429  0.89164050    -0.14500
C3393       C  0.40611326  0.44534509  0.89929926     0.07700
C3394       C  0.39685974  0.42205432  0.88917220    -0.14500
H3395       H  0.40274548  0.39133084  0.86211447     0.11700
H3396       H  0.46228674  0.44940870  0.86554636     0.11700
H3397       H  0.43783872  0.47232399  0.89935831     0.11700
H3398       H  0.37824202  0.41467690  0.89517771     0.11700
C3399       C  0.45684410  0.40613916  0.60922524    -0.14500
C3400       C  0.44472666  0.38618616  0.62276825     0.07700
C3401       C  0.43368507  0.36573549  0.60904673    -0.14500
C3402       C  0.43658566  0.36429412  0.58226764    -0.14500
C3403       C  0.45146191  0.38277007  0.56906657     0.07700
C3404       C  0.46025821  0.40442556  0.58264427    -0.14500
H3405       H  0.46520737  0.42237245  0.61943147     0.11700
H3406       H  0.42361570  0.35055776  0.61905649     0.11700
H3407       H  0.42946338  0.34728855  0.57239232     0.11700
H3408       H  0.47176671  0.41889459  0.57312676     0.11700
C3409       C  0.41266680  0.60120268  0.89145659    -0.14500
C3410       C  0.42077234  0.59014772  0.86793262     0.07700
C3411       C  0.40857716  0.56751539  0.85918792    -0.14500
C3412       C  0.38887709  0.55620410  0.87359307    -0.14500
C3413       C  0.38089667  0.56708973  0.89726837     0.07700
C3414       C  0.39303551  0.58976828  0.90598904    -0.14500
H3415       H  0.42152097  0.61867767  0.89869343     0.11700
H3416       H  0.41411435  0.55850786  0.84106282     0.11700
H3417       H  0.38033006  0.53855404  0.86639394     0.11700
H3418       H  0.38770744  0.59848353  0.92431793     0.11700
C3419       C  0.50905133  0.53412789  0.76581949    -0.14500
C3420       C  0.50173636  0.54501439  0.74215860     0.07700
C3421       C  0.49927917  0.52770584  0.72104455    -0.14500
C3422       C  0.50324268  0.50061150  0.72401511    -0.14500
C3423       C  0.50931767  0.48983971  0.74827839     0.07700
C3424       C  0.51306407  0.50747564  0.76875652    -0.14500
H3425       H  0.50951931  0.54616236  0.78288869     0.11700
H3426       H  0.49264032  0.53482190  0.70269169     0.11700
H3427       H  0.49943937  0.48794573  0.70779659     0.11700
H3428       H  0.51695367  0.50037368  0.78790993     0.11700
C3429       C  0.35150780  0.64839227  0.78108411    -0.14500
C3430       C  0.36940264  0.62976892  0.78924089     0.07700
C3431       C  0.36028860  0.60744729  0.80102434    -0.14500
C3432       C  0.33379073  0.60262160  0.80225335    -0.14500
C3433       C  0.31599194  0.61968567  0.79096457     0.07700
C3434       C  0.32502866  0.64338680  0.78191925    -0.14500
H3435       H  0.35799839  0.66618364  0.77258421     0.11700
H3436       H  0.37366122  0.59327416  0.80842435     0.11700
H3437       H  0.32758765  0.58421126  0.80956391     0.11700
H3438       H  0.31188674  0.65700775  0.77323028     0.11700
C3439       C  0.52832788  0.78055301  0.72722558    -0.14500
C3440       C  0.50497277  0.79306049  0.73415959     0.07700
C3441       C  0.48279352  0.77720838  0.73536524    -0.14500
C3442       C  0.48455188  0.74996315  0.73092921    -0.14500
C3443       C  0.50852902  0.73755349  0.72566552     0.07700
C3444       C  0.53006644  0.75378121  0.72292015    -0.14500
H3445       H  0.54611406  0.79128455  0.72740252     0.11700
H3446       H  0.46450920  0.78545873  0.74150408     0.11700
H3447       H  0.46751554  0.73835976  0.73366158     0.11700
H3448       H  0.54903994  0.74541262  0.71971090     0.11700
C3449       C  0.45018471  0.24473447  0.61438909    -0.14500
C3450       C  0.45875095  0.22088820  0.60413324     0.07700
C3451       C  0.46480840  0.21880368  0.57789264    -0.14500
C3452       C  0.46595160  0.24084876  0.56313224    -0.14500
C3453       C  0.46068136  0.26495713  0.57436021     0.07700
C3454       C  0.45170051  0.26683234  0.59964395    -0.14500
H3455       H  0.44504437  0.24693687  0.63453795     0.11700
H3456       H  0.47122966  0.20071446  0.56946254     0.11700
H3457       H  0.47369051  0.23939393  0.54371897     0.11700
H3458       H  0.44800737  0.28545564  0.60852432     0.11700
C3459       C  0.50268648  0.02849223  0.75756143    -0.14500
C3460       C  0.49275349  0.04416877  0.73785188     0.07700
C3461       C  0.47964305  0.03100129  0.71775373    -0.14500
C3462       C  0.47770886  0.00378733  0.71643509    -0.14500
C3463       C  0.48841612  0.98794426  0.73549508     0.07700
C3464       C  0.50039137  0.00108241  0.75639553    -0.14500
H3465       H  0.51414317  0.03714811  0.77275322     0.11700
H3466       H  0.47277798  0.04177446  0.70155573     0.11700
H3467       H  0.46954846  0.99502825  0.69927687     0.11700
H3468       H  0.51051484  0.98997036  0.77049900     0.11700
C3469       C  0.50857306  0.25207340  0.72115094    -0.14500
C3470       C  0.49982915  0.23985322  0.74373116     0.07700
C3471       C  0.49588507  0.25599916  0.76553261    -0.14500
C3472       C  0.49945293  0.28325523  0.76409047    -0.14500
C3473       C  0.50670953  0.29540622  0.74076750     0.07700
C3474       C  0.51206005  0.27893414  0.71969893    -0.14500
H3475       H  0.51022096  0.24093963  0.70352392     0.11700
H3476       H  0.48817478  0.24792144  0.78307990     0.11700
H3477       H  0.49426508  0.29503038  0.78065102     0.11700
H3478       H  0.51639513  0.28713376  0.70107586     0.11700
C3479       C  0.37069282  0.18965308  0.68551151    -0.14500
C3480       C  0.38120429  0.16698203  0.67461936     0.07700
C3481       C  0.36758569  0.15413947  0.65498461    -0.14500
C3482       C  0.34588100  0.16561144  0.64405759    -0.14500
C3483       C  0.33716024  0.18960261  0.65316213     0.07700
C3484       C  0.34861926  0.20079787  0.67494054    -0.14500
H3485       H  0.38064615  0.19981988  0.70085712     0.11700
H3486       H  0.37510723  0.13658019  0.64633475     0.11700
H3487       H  0.33692801  0.15661451  0.62741432     0.11700
H3488       H  0.34199327  0.21929861  0.68222536     0.11700
C3489       C  0.35746096  0.35552548  0.10714421    -0.14500
C3490       C  0.34752312  0.34276570  0.08531543     0.07700
C3491       C  0.32079210  0.34426061  0.08048625    -0.14500
C3492       C  0.30419990  0.35651924  0.09835979    -0.14500
C3493       C  0.31420932  0.36740489  0.12119013     0.07700
C3494       C  0.34106702  0.36765585  0.12478305    -0.14500
H3495       H  0.37799534  0.35538242  0.11118072     0.11700
H3496       H  0.31259706  0.33486348  0.06368406     0.11700
H3497       H  0.28352626  0.35607803  0.09511102     0.11700
H3498       H  0.34940800  0.37626627  0.14194498     0.11700
C3499       C  0.41579939  0.43542885  0.03479320    -0.14500
C3500       C  0.39078120  0.43987828  0.04450982     0.07700
C3501       C  0.37478415  0.41872838  0.04977797    -0.14500
C3502       C  0.38147616  0.39442975  0.04061195    -0.14500
C3503       C  0.40491341  0.39063764  0.02755803     0.07700
C3504       C  0.42296679  0.41072299  0.02657915    -0.14500
H3505       H  0.42868467  0.45133467  0.03101057     0.11700
H3506       H  0.35563607  0.42133415  0.05796267     0.11700
H3507       H  0.36794992  0.37877246  0.04300478     0.11700
H3508       H  0.44174670  0.40776623  0.01768241     0.11700
C3509       C  0.56454895  0.28502678  0.96499553    -0.14500
C3510       C  0.58154395  0.26373949  0.96389788     0.07700
C3511       C  0.57018723  0.23949431  0.95907500    -0.14500
C3512       C  0.54299518  0.23622886  0.95849593    -0.14500
C3513       C  0.52593780  0.25724282  0.96165271     0.07700
C3514       C  0.53733272  0.28187190  0.96337573    -0.14500
H3515       H  0.57213223  0.30390559  0.96960249     0.11700
H3516       H  0.58222686  0.22245912  0.95921096     0.11700
H3517       H  0.53531221  0.21688574  0.95804993     0.11700
H3518       H  0.52511131  0.29857194  0.96628400     0.11700
C3519       C  0.81779863  0.23896195  0.00547748    -0.14500
C3520       C  0.82843574  0.23266994  0.98120378     0.07700
C3521       C  0.81152765  0.23548562  0.95971558    -0.14500
C3522       C  0.78511000  0.24266061  0.96231931    -0.14500
C3523       C  0.77401233  0.24728101  0.98666330     0.07700
C3524       C  0.79118215  0.24587997  0.00810569    -0.14500
H3525       H  0.82954482  0.23713657  0.02258418     0.11700
H3526       H  0.81860601  0.23122988  0.94045784     0.11700
H3527       H  0.77295607  0.24263380  0.94536861     0.11700
H3528       H  0.78352675  0.24866612  0.02740626     0.11700
C3529       C  0.22295710  0.41100438  0.01328269    -0.14500
C3530       C  0.22449290  0.38495639  0.01957053     0.07700
C3531       C  0.24504661  0.37648894  0.03529733    -0.14500
C3532       C  0.26566958  0.39261270  0.04097294    -0.14500
C3533       C  0.26545239  0.41782069  0.03226361     0.07700
C3534       C  0.24341072  0.42737037  0.01964775    -0.14500
H3535       H  0.20738659  0.41811215  0.00138895     0.11700
H3536       H  0.24653649  0.35662895  0.04118908     0.11700
H3537       H  0.28264637  0.38484807  0.05030609     0.11700
H3538       H  0.24325378  0.44670836  0.01216800     0.11700
C3539       C  0.07092357  0.22944736  0.00244872    -0.14500
C3540       C  0.08125421  0.21959627  0.97899099     0.07700
C3541       C  0.06332145  0.20785836  0.96217691    -0.14500
C3542       C  0.03642398  0.20744755  0.96785246    -0.14500
C3543       C  0.02575215  0.21950422  0.99001284     0.07700
C3544       C  0.04381513  0.22991917  0.00760498    -0.14500
H3545       H  0.08354443  0.23941104  0.01568835     0.11700
H3546       H  0.06976217  0.20113227  0.94337087     0.11700
H3547       H  0.02347996  0.20043213  0.95329138     0.11700
H3548       H  0.03686358  0.24039796  0.02441634     0.11700
C3549       C  0.28656520  0.26525259  0.94610155    -0.14500
C3550       C  0.27501776  0.24553415  0.96074534     0.07700
C3551       C  0.29232108  0.22779312  0.97195976    -0.14500
C3552       C  0.31976608  0.23077586  0.96975038    -0.14500
C3553       C  0.33104494  0.25211915  0.95716879     0.07700
C3554       C  0.31367740  0.26866255  0.94461308    -0.14500
H3555       H  0.27439948  0.27976220  0.93765065     0.11700
H3556       H  0.28477074  0.21276632  0.98409809     0.11700
H3557       H  0.33212005  0.21756954  0.97992077     0.11700
H3558       H  0.32100854  0.28578681  0.93544635     0.11700
C3559       C  0.22469391  0.29845122  0.09059954    -0.14500
C3560       C  0.19863430  0.29319083  0.08502949     0.07700
C3561       C  0.18010737  0.29541284  0.10490339    -0.14500
C3562       C  0.18700203  0.30587750  0.12882869    -0.14500
C3563       C  0.21235270  0.31427898  0.13290487     0.07700
C3564       C  0.23141279  0.30932569  0.11426213    -0.14500
H3565       H  0.23953387  0.29662053  0.07589222     0.11700
H3566       H  0.15993963  0.29119153  0.10130847     0.11700
H3567       H  0.17212570  0.30965258  0.14315615     0.11700
H3568       H  0.25112270  0.31567250  0.11729418     0.11700
C3569       C  0.47623279  0.20952825  0.12100639    -0.14500
C3570       C  0.45622115  0.21896520  0.13709850     0.07700
C3571       C  0.43070729  0.21784518  0.12836413    -0.14500
C3572       C  0.42527366  0.20841037  0.10379646    -0.14500
C3573       C  0.44531126  0.20077830  0.08689773     0.07700
C3574       C  0.47081874  0.20067017  0.09599352    -0.14500
H3575       H  0.49603990  0.20930459  0.12762163     0.11700
H3576       H  0.41492167  0.22466094  0.14039926     0.11700
H3577       H  0.40538501  0.20857327  0.09761671     0.11700
H3578       H  0.48653708  0.19436419  0.08360732     0.11700
C3579       C  0.58011414  0.17635764  0.14685782    -0.14500
C3580       C  0.56027671  0.19472382  0.14988802     0.07700
C3581       C  0.55583714  0.21244662  0.13035071    -0.14500
C3582       C  0.57031854  0.21115701  0.10763397    -0.14500
C3583       C  0.58991069  0.19239915  0.10419055     0.07700
C3584       C  0.59496146  0.17532032  0.12430251    -0.14500
H3585       H  0.58352327  0.16224422  0.16167554     0.11700
H3586       H  0.54025814  0.22635099  0.13204325     0.11700
H3587       H  0.56594919  0.22484423  0.09267796     0.11700
H3588       H  0.61011933  0.16098728  0.12251070     0.11700
C3589       C  0.61489781  0.31983049  0.13275740    -0.14500
C3590       C  0.59790866  0.33712691  0.12068228     0.07700
C3591       C  0.59323731  0.33418464  0.09417971    -0.14500
C3592       C  0.60434740  0.31379192  0.08027829    -0.14500
C3593       C  0.62092994  0.29626108  0.09237574     0.07700
C3594       C  0.62659910  0.29975945  0.11862410    -0.14500
H3595       H  0.61888953  0.32165493  0.15317737     0.11700
H3596       H  0.58016549  0.34706984  0.08436219     0.11700
H3597       H  0.59995064  0.31169792  0.05996163     0.11700
H3598       H  0.63940517  0.28653270  0.12833719     0.11700
C3599       C  0.55450077  0.28145658  0.26721265    -0.14500
C3600       C  0.53193558  0.26685635  0.27114812     0.07700
C3601       C  0.50873364  0.28157037  0.27377126    -0.14500
C3602       C  0.50790537  0.30900242  0.27063053    -0.14500
C3603       C  0.53046707  0.32336541  0.26526633     0.07700
C3604       C  0.55384448  0.30872711  0.26498479    -0.14500
H3605       H  0.57266427  0.27155878  0.26374919     0.11700
H3606       H  0.49060516  0.27151929  0.27566566     0.11700
H3607       H  0.48925979  0.31848988  0.27001150     0.11700
H3608       H  0.57178986  0.31824176  0.26012961     0.11700
C3609       C  0.47276582  0.29773568  0.15802378    -0.14500
C3610       C  0.49866267  0.30523224  0.15916037     0.07700
C3611       C  0.51678161  0.29344721  0.14243043    -0.14500
C3612       C  0.50836678  0.27775108  0.12208427    -0.14500
C3613       C  0.48188946  0.27325335  0.11884430     0.07700
C3614       C  0.46448237  0.28184092  0.13807569    -0.14500
H3615       H  0.45850977  0.30618479  0.17097026     0.11700
H3616       H  0.53698893  0.29882115  0.14307090     0.11700
H3617       H  0.52224093  0.27092189  0.10786890     0.11700
H3618       H  0.44402038  0.27794523  0.13669986     0.11700
C3619       C  0.49353627  0.56002326  0.21781308    -0.14500
C3620       C  0.50520239  0.57237382  0.23891872     0.07700
C3621       C  0.51135233  0.55620586  0.26013761    -0.14500
C3622       C  0.50699671  0.52898771  0.25984984    -0.14500
C3623       C  0.49732312  0.51622643  0.23773969     0.07700
C3624       C  0.48958684  0.53291844  0.21736556    -0.14500
H3625       H  0.48873757  0.57105398  0.20091242     0.11700
H3626       H  0.52067634  0.56461448  0.27687120     0.11700
H3627       H  0.51289406  0.51781833  0.27631125     0.11700
H3628       H  0.48135823  0.52488699  0.19998351     0.11700
C3629       C  0.50497140  0.02899330  0.25677787    -0.14500
C3630       C  0.51608182  0.01704534  0.27826572     0.07700
C3631       C  0.52533275  0.03435652  0.29787881    -0.14500
C3632       C  0.52124267  0.06147458  0.29747576    -0.14500
C3633       C  0.50813388  0.07306879  0.27702882     0.07700
C3634       C  0.50092795  0.05619373  0.25632166    -0.14500
H3635       H  0.49834788  0.01730724  0.24074400     0.11700
H3636       H  0.53516133  0.02682641  0.31451563     0.11700
H3637       H  0.52728398  0.07310721  0.31380015     0.11700
H3638       H  0.49111436  0.06406968  0.23979161     0.11700
C3639       C  0.50744242  0.81066483  0.24487492    -0.14500
C3640       C  0.48434332  0.82371475  0.25152581     0.07700
C3641       C  0.46190317  0.80787730  0.25282943    -0.14500
C3642       C  0.46291158  0.78054433  0.25064067    -0.14500
C3643       C  0.48627720  0.76726262  0.24580220     0.07700
C3644       C  0.50827627  0.78323834  0.24189891    -0.14500
H3645       H  0.52542282  0.82125073  0.24454695     0.11700
H3646       H  0.44363884  0.81653274  0.25853463     0.11700
H3647       H  0.44567002  0.76968667  0.25511465     0.11700
H3648       H  0.52701203  0.77421714  0.23928645     0.11700
C3649       C  0.11903936  0.25586051  0.81461014    -0.14500
C3650       C  0.13411100  0.23420683  0.80754099     0.07700
C3651       C  0.15805237  0.23055921  0.81962105    -0.14500
C3652       C  0.16545371  0.24663481  0.84006582    -0.14500
C3653       C  0.14862859  0.26598169  0.84923627     0.07700
C3654       C  0.12587771  0.27117411  0.83576984    -0.14500
H3655       H  0.10048149  0.25932387  0.80572594     0.11700
H3656       H  0.16994242  0.21399220  0.81479493     0.11700
H3657       H  0.18310747  0.24229186  0.85034125     0.11700
H3658       H  0.11271366  0.28607099  0.84251727     0.11700
C3659       C  0.02734495  0.27638419  0.82068276    -0.14500
C3660       C  0.04802560  0.26336675  0.83168402     0.07700
C3661       C  0.05375605  0.26847147  0.85760371    -0.14500
C3662       C  0.03465422  0.27922989  0.87348527    -0.14500
C3663       C  0.00990539  0.28360102  0.86330331     0.07700
C3664       C  0.00724824  0.28496133  0.83651319    -0.14500
H3665       H  0.02376050  0.27379734  0.80056743     0.11700
H3666       H  0.07043671  0.25955625  0.86636040     0.11700
H3667       H  0.03767577  0.27910718  0.89404784     0.11700
H3668       H  0.98855618  0.28828644  0.82800268     0.11700
C3669       C  0.97358512  0.36735736  0.92514404    -0.14500
C3670       C  0.94951317  0.37371091  0.91452461     0.07700
C3671       C  0.92757355  0.37371564  0.93043282    -0.14500
C3672       C  0.92908734  0.36224146  0.95456355    -0.14500
C3673       C  0.95108028  0.34722435  0.95993661     0.07700
C3674       C  0.97454325  0.35508225  0.94887296    -0.14500
H3675       H  0.99113920  0.37009876  0.91427184     0.11700
H3676       H  0.90900941  0.38020287  0.92337402     0.11700
H3677       H  0.91118638  0.35907478  0.96495572     0.11700
H3678       H  0.99269286  0.34650370  0.95472198     0.11700
C3679       C  0.98002973  0.28880011  0.77602694    -0.14500
C3680       C  0.99997450  0.30535510  0.76680417     0.07700
C3681       C  0.01967266  0.29329755  0.75234067    -0.14500
C3682       C  0.02032899  0.26603031  0.74901313    -0.14500
C3683       C  0.00154901  0.24915068  0.76016262     0.07700
C3684       C  0.98091876  0.26144312  0.77316361    -0.14500
H3685       H  0.96406446  0.29705070  0.78686594     0.11700
H3686       H  0.03543252  0.30468583  0.74485797     0.11700
H3687       H  0.03677650  0.25807609  0.73867141     0.11700
H3688       H  0.96599427  0.24997509  0.78206434     0.11700
C3689       C  0.06936093  0.39390105  0.88587792    -0.14500
C3690       C  0.04604763  0.38072506  0.88158682     0.07700
C3691       C  0.04041059  0.35904937  0.89639264    -0.14500
C3692       C  0.05776915  0.35035934  0.91475252    -0.14500
C3693       C  0.08199270  0.36217994  0.91773175     0.07700
C3694       C  0.08740564  0.38448124  0.90364936    -0.14500
H3695       H  0.07414696  0.41062912  0.87459891     0.11700
H3696       H  0.02277664  0.34830537  0.89331123     0.11700
H3697       H  0.05290426  0.33323897  0.92542929     0.11700
H3698       H  0.10608195  0.39370063  0.90526342     0.11700
C3699       C  0.00491589  0.53856771  0.71546679    -0.14500
C3700       C  0.99706764  0.55538431  0.73619928     0.07700
C3701       C  0.99392437  0.54315931  0.76015880    -0.14500
C3702       C  0.99641163  0.51574920  0.76241466    -0.14500
C3703       C  0.00067120  0.49890338  0.74084536     0.07700
C3704       C  0.00584626  0.51127755  0.71748287    -0.14500
H3705       H  0.00827466  0.54639072  0.69650206     0.11700
H3706       H  0.98789772  0.55439161  0.77683492     0.11700
H3707       H  0.99276146  0.50738837  0.78100611     0.11700
H3708       H  0.00887029  0.49981346  0.70017028     0.11700
C3709       C  0.96578313  0.01452973  0.77231752    -0.14500
C3710       C  0.96872667  0.99960717  0.79500961     0.07700
C3711       C  0.97288028  0.01414865  0.81775405    -0.14500
C3712       C  0.97488901  0.04153540  0.81768390    -0.14500
C3713       C  0.97405859  0.05642719  0.79473641     0.07700
C3714       C  0.96861842  0.04204441  0.77206071    -0.14500
H3715       H  0.96373184  0.00461903  0.75407977     0.11700
H3716       H  0.97655302  0.00416510  0.83557757     0.11700
H3717       H  0.97986188  0.05099917  0.83569745     0.11700
H3718       H  0.96891838  0.05165815  0.75366954     0.11700
C3719       C  0.98069322  0.78991484  0.75551681    -0.14500
C3720       C  0.95931430  0.80556478  0.76363082     0.07700
C3721       C  0.93809967  0.79200671  0.77374143    -0.14500
C3722       C  0.93793100  0.76445881  0.77447900    -0.14500
C3723       C  0.95890368  0.74873079  0.76533460     0.07700
C3724       C  0.98061559  0.76243313  0.75652034    -0.14500
H3725       H  0.99738724  0.79907601  0.74696838     0.11700
H3726       H  0.92088590  0.80251018  0.77952343     0.11700
H3727       H  0.92035281  0.75525109  0.78093155     0.11700
H3728       H  0.99693681  0.75189928  0.74864971     0.11700
C3729       C  0.21196949  0.19021472  0.49003978    -0.14500
C3730       C  0.19895962  0.18002696  0.51145634     0.07700
C3731       C  0.18993941  0.15479273  0.51038296    -0.14500
C3732       C  0.19708047  0.13893551  0.48976636    -0.14500
C3733       C  0.21430925  0.14792073  0.47068244     0.07700
C3734       C  0.21961664  0.17422166  0.46960612    -0.14500
H3735       H  0.21983213  0.20944966  0.49091283     0.11700
H3736       H  0.18011740  0.14654417  0.52680697     0.11700
H3737       H  0.19168645  0.11884902  0.49055675     0.11700
H3738       H  0.23240056  0.18174844  0.45495206     0.11700
C3739       C  0.34291494  0.15534957  0.33832584    -0.14500
C3740       C  0.34602562  0.13146804  0.35038225     0.07700
C3741       C  0.36960689  0.11828870  0.34740125    -0.14500
C3742       C  0.38908116  0.12765514  0.33152094    -0.14500
C3743       C  0.38569592  0.15061327  0.31803066     0.07700
C3744       C  0.36267043  0.16486688  0.32217173    -0.14500
H3745       H  0.32490101  0.16588136  0.34031916     0.11700
H3746       H  0.37266897  0.10003856  0.35681770     0.11700
H3747       H  0.40663751  0.11642371  0.32927356     0.11700
H3748       H  0.35949093  0.18271729  0.31210062     0.11700
C3749       C  0.40853113  0.04312545  0.38339453    -0.14500
C3750       C  0.39397295  0.03826972  0.40554717     0.07700
C3751       C  0.40411754  0.02233558  0.42476245    -0.14500
C3752       C  0.42681555  0.00850848  0.42022028    -0.14500
C3753       C  0.43979129  0.01097486  0.39663737     0.07700
C3754       C  0.43175048  0.03004757  0.37928514    -0.14500
H3755       H  0.40114743  0.05567481  0.36858792     0.11700
H3756       H  0.39314752  0.01852321  0.44212983     0.11700
H3757       H  0.43264072  0.99399428  0.43386056     0.11700
H3758       H  0.44141214  0.03241159  0.36089548     0.11700
C3759       C  0.14307166  0.06182890  0.45359496    -0.14500
C3760       C  0.15423002  0.06979814  0.43031335     0.07700
C3761       C  0.14023479  0.08616765  0.41403112    -0.14500
C3762       C  0.11664145  0.09642597  0.42218532    -0.14500
C3763       C  0.10655819  0.08974050  0.44625510     0.07700
C3764       C  0.11921721  0.07160668  0.46140934    -0.14500
H3765       H  0.15347353  0.04928098  0.46648272     0.11700
H3766       H  0.14844859  0.09272221  0.39603530     0.11700
H3767       H  0.10699856  0.11062437  0.41045321     0.11700
H3768       H  0.11172381  0.06669602  0.48025401     0.11700
C3769       C  0.15500192  0.09322157  0.56294854    -0.14500
C3770       C  0.15254594  0.09312588  0.58996856     0.07700
C3771       C  0.13534842  0.11048188  0.60196095    -0.14500
C3772       C  0.11931575  0.12600575  0.58738371    -0.14500
C3773       C  0.11998080  0.12457900  0.56040839     0.07700
C3774       C  0.13867408  0.10883916  0.54818470    -0.14500
H3775       H  0.16847225  0.08032743  0.55326699     0.11700
H3776       H  0.13368701  0.11152759  0.62277174     0.11700
H3777       H  0.10544500  0.13830702  0.59728442     0.11700
H3778       H  0.13956757  0.10741761  0.52734554     0.11700
C3779       C  0.07167501  0.03031563  0.72815190    -0.14500
C3780       C  0.07510829  0.03849804  0.75363823     0.07700
C3781       C  0.09626232  0.02934088  0.76777288    -0.14500
C3782       C  0.11636719  0.01649896  0.75498644    -0.14500
C3783       C  0.11509030  0.01281293  0.72817041     0.07700
C3784       C  0.09171205  0.01780189  0.71536039    -0.14500
H3785       H  0.05527846  0.03701800  0.71711798     0.11700
H3786       H  0.09923217  0.03561467  0.78754082     0.11700
H3787       H  0.13401223  0.01251630  0.76541135     0.11700
H3788       H  0.08981374  0.01447261  0.69480690     0.11700
C3789       C  0.29284780  0.00907249  0.55443978    -0.14500
C3790       C  0.27112584  0.00822248  0.57109232     0.07700
C3791       C  0.24693981  0.00438157  0.55912986    -0.14500
C3792       C  0.24431558  0.00153820  0.53213712    -0.14500
C3793       C  0.26570136  0.00307073  0.51525420     0.07700
C3794       C  0.29017135  0.00648338  0.52707482    -0.14500
H3795       H  0.31165043  0.01360669  0.56234672     0.11700
H3796       H  0.22944783  0.00577808  0.57060710     0.11700
H3797       H  0.22499270  0.00049427  0.52421274     0.11700
H3798       H  0.30701659  0.00943848  0.51504642     0.11700
C3799       C  0.11796476  0.94778503  0.72559458    -0.14500
C3800       C  0.09860511  0.95633487  0.70864696     0.07700
C3801       C  0.10424588  0.95843566  0.68240642    -0.14500
C3802       C  0.12888592  0.95294612  0.67323796    -0.14500
C3803       C  0.14878148  0.94566247  0.69014802     0.07700
C3804       C  0.14300515  0.94265239  0.71640974    -0.14500
H3805       H  0.11383296  0.94539648  0.74591192     0.11700
H3806       H  0.08969416  0.96485666  0.66895551     0.11700
H3807       H  0.13259972  0.95588213  0.65293181     0.11700
H3808       H  0.15793065  0.93708404  0.72983398     0.11700
C3809       C  0.19307091  0.14765022  0.62394703    -0.14500
C3810       C  0.20452047  0.14152155  0.64751103     0.07700
C3811       C  0.20633466  0.16064714  0.66684630    -0.14500
C3812       C  0.20029876  0.18621801  0.66130979    -0.14500
C3813       C  0.19179454  0.19278855  0.63658020     0.07700
C3814       C  0.18607587  0.17297006  0.61877870    -0.14500
H3815       H  0.19034260  0.13302729  0.60918742     0.11700
H3816       H  0.21428271  0.15619462  0.68556556     0.11700
H3817       H  0.20452000  0.20103118  0.67550942     0.11700
H3818       H  0.17902179  0.17730049  0.59967455     0.11700
C3819       C  0.12603826  0.94541971  0.83540053    -0.14500
C3820       C  0.13428684  0.92316748  0.84838829     0.07700
C3821       C  0.11858732  0.90131308  0.84792987    -0.14500
C3822       C  0.09620387  0.90101612  0.83291766    -0.14500
C3823       C  0.08896312  0.92270348  0.81852078     0.07700
C3824       C  0.10353831  0.94522739  0.82068318    -0.14500
H3825       H  0.13736137  0.96290233  0.83608941     0.11700
H3826       H  0.12419650  0.88415820  0.85816907     0.11700
H3827       H  0.08506233  0.88344399  0.83174873     0.11700
H3828       H  0.09844344  0.96216126  0.80981270     0.11700
C3829       C  0.28220686  0.98427626  0.80682009    -0.14500
C3830       C  0.27287333  0.00537701  0.82174763     0.07700
C3831       C  0.26571232  0.02747351  0.80794980    -0.14500
C3832       C  0.26629758  0.02782356  0.78057440    -0.14500
C3833       C  0.27348593  0.00594163  0.76563788     0.07700
C3834       C  0.28224420  0.98442341  0.77942569    -0.14500
H3835       H  0.28657818  0.96635029  0.81632983     0.11700
H3836       H  0.25707133  0.04362644  0.81819838     0.11700
H3837       H  0.25855391  0.04452329  0.77099433     0.11700
H3838       H  0.28677623  0.96676506  0.76907774     0.11700
C3839       C  0.12487630  0.02978938  0.87030103    -0.14500
C3840       C  0.14983815  0.02393646  0.86143168     0.07700
C3841       C  0.16091817  0.03868526  0.84174757    -0.14500
C3842       C  0.14748926  0.05952875  0.83161277    -0.14500
C3843       C  0.12262772  0.06557487  0.84072339     0.07700
C3844       C  0.11129810  0.05030069  0.85987101    -0.14500
H3845       H  0.11596351  0.01864982  0.88543309     0.11700
H3846       H  0.18029594  0.03461598  0.83477310     0.11700
H3847       H  0.15642276  0.07075278  0.81656492     0.11700
H3848       H  0.09203421  0.05446973  0.86709644     0.11700
C3849       C  0.42214709  0.02339394  0.23821532    -0.14500
C3850       C  0.39583023  0.02873314  0.24256637     0.07700
C3851       C  0.38737591  0.03410004  0.26784661    -0.14500
C3852       C  0.40361724  0.02888225  0.28860813    -0.14500
C3853       C  0.42844381  0.01875117  0.28410926     0.07700
C3854       C  0.43830682  0.01826178  0.25894691    -0.14500
H3855       H  0.42931121  0.01950894  0.21889708     0.11700
H3856       H  0.36729047  0.03863218  0.27180165     0.11700
H3857       H  0.39557301  0.02920395  0.30793136     0.11700
H3858       H  0.45682158  0.00942166  0.25496160     0.11700
C3859       C  0.28295875  0.98957430  0.05260040    -0.14500
C3860       C  0.26150647  0.98965427  0.06997914     0.07700
C3861       C  0.23761820  0.99732593  0.05963582    -0.14500
C3862       C  0.23520130  0.00247003  0.03278958    -0.14500
C3863       C  0.25659197  0.00087060  0.01534859     0.07700
C3864       C  0.28068000  0.99539596  0.02617794    -0.14500
H3865       H  0.30186697  0.98367394  0.05917441     0.11700
H3866       H  0.22053611  0.99766773  0.07176287     0.11700
H3867       H  0.21602599  0.00592040  0.02522022     0.11700
H3868       H  0.29741634  0.99292459  0.01376547     0.11700
C3869       C  0.23742286  0.00493543  0.28178134    -0.14500
C3870       C  0.25483324  0.99165032  0.26537409     0.07700
C3871       C  0.27584249  0.97934005  0.27750064    -0.14500
C3872       C  0.28023202  0.98127911  0.30441207    -0.14500
C3873       C  0.26343751  0.99527872  0.32080875     0.07700
C3874       C  0.24149091  0.00641183  0.30890468    -0.14500
H3875       H  0.22175577  0.01589823  0.27346834     0.11700
H3876       H  0.29068307  0.97063086  0.26563086     0.11700
H3877       H  0.29803437  0.97353899  0.31208964     0.11700
H3878       H  0.22844855  0.01815330  0.32023276     0.11700
C3879       C  0.33363236  0.11414947  0.17695691    -0.14500
C3880       C  0.32509751  0.09519009  0.19378254     0.07700
C3881       C  0.33426693  0.09451673  0.21920906    -0.14500
C3882       C  0.35506443  0.10963636  0.22625837    -0.14500
C3883       C  0.36608805  0.12598469  0.20813140     0.07700
C3884       C  0.35402235  0.12978651  0.18423900    -0.14500
H3885       H  0.32655662  0.11489823  0.15734501     0.11700
H3886       H  0.32783188  0.07997368  0.23251578     0.11700
H3887       H  0.36367195  0.10713113  0.24508157     0.11700
H3888       H  0.36192025  0.14290577  0.17020342     0.11700
C3889       C  0.11930774  0.73423397  0.17413773    -0.14500
C3890       C  0.13900709  0.75207292  0.16995077     0.07700
C3891       C  0.13670749  0.77703873  0.18031138    -0.14500
C3892       C  0.11359659  0.78500443  0.19200236    -0.14500
C3893       C  0.09280451  0.76784439  0.19399375     0.07700
C3894       C  0.09655262  0.74192898  0.18648130    -0.14500
H3895       H  0.12088197  0.71481738  0.16645167     0.11700
H3896       H  0.15181979  0.79105615  0.17720709     0.11700
H3897       H  0.11138301  0.80498704  0.19771696     0.11700
H3898       H  0.08105237  0.72805729  0.18789480     0.11700
C3899       C  0.30912231  0.82431688  0.12508039    -0.14500
C3900       C  0.29418106  0.80941567  0.14197586     0.07700
C3901       C  0.28763131  0.81956310  0.16638929    -0.14500
C3902       C  0.29357117  0.84501156  0.17262757    -0.14500
C3903       C  0.30584111  0.86058109  0.15442411     0.07700
C3904       C  0.31446116  0.84983137  0.13106852    -0.14500
H3905       H  0.31456636  0.81716097  0.10612556     0.11700
H3906       H  0.27611727  0.80858086  0.17979992     0.11700
H3907       H  0.28693936  0.85300229  0.19087722     0.11700
H3908       H  0.32431605  0.86145867  0.11694476     0.11700
C3909       C  0.13421589  0.64995522  0.13228542    -0.14500
C3910       C  0.16057827  0.64477447  0.12790938     0.07700
C3911       C  0.17248032  0.62470297  0.14137634    -0.14500
C3912       C  0.15856633  0.61078855  0.15964522    -0.14500
C3913       C  0.13259999  0.61692867  0.16501300     0.07700
C3914       C  0.12045010  0.63633485  0.15077173    -0.14500
H3915       H  0.12446643  0.66538511  0.12233687     0.11700
H3916       H  0.19275277  0.62027121  0.13835774     0.11700
H3917       H  0.16831052  0.59563357  0.16998939     0.11700
H3918       H  0.10028271  0.64112584  0.15397915     0.11700
C3919       C  0.24880024  0.85525058  0.02918438    -0.14500
C3920       C  0.25379404  0.82961124  0.02246520     0.07700
C3921       C  0.24930872  0.82113604  0.99701893    -0.14500
C3922       C  0.23768222  0.83771844  0.97928198    -0.14500
C3923       C  0.23040796  0.86272804  0.98702292     0.07700
C3924       C  0.23675199  0.87138632  0.01193875    -0.14500
H3925       H  0.25184691  0.86210773  0.04874799     0.11700
H3926       H  0.25256788  0.80121292  0.99157702     0.11700
H3927       H  0.23355716  0.83074917  0.95998315     0.11700
H3928       H  0.23160020  0.89048316  0.01864476     0.11700
C3929       C  0.54168279  0.84980948  0.91161055    -0.14500
C3930       C  0.52963025  0.86839807  0.92773553     0.07700
C3931       C  0.52216001  0.89193458  0.91722581    -0.14500
C3932       C  0.52524207  0.89620415  0.89089754    -0.14500
C3933       C  0.53531483  0.87678846  0.87448285     0.07700
C3934       C  0.54424612  0.85386815  0.88519297    -0.14500
H3935       H  0.54738659  0.83124334  0.91898985     0.11700
H3936       H  0.51266975  0.90645909  0.92907525     0.11700
H3937       H  0.51858982  0.91432562  0.88321117     0.11700
H3938       H  0.55266404  0.83888392  0.87310518     0.11700
C3939       C  0.37441491  0.89873223  0.96643422    -0.14500
C3940       C  0.37418010  0.88261987  0.98792327     0.07700
C3941       C  0.35078562  0.87912457  0.00145562    -0.14500
C3942       C  0.32777606  0.89024577  0.99272757    -0.14500
C3943       C  0.32773595  0.90463802  0.97006460     0.07700
C3944       C  0.35136022  0.90939091  0.95743740    -0.14500
H3945       H  0.39211417  0.90189879  0.95570576     0.11700
H3946       H  0.35011221  0.86703713  0.01830773     0.11700
H3947       H  0.30984345  0.88635118  0.00278918     0.11700
H3948       H  0.35183838  0.92072040  0.94004822     0.11700
C3949       C  0.36246327  0.71232372  0.02838362    -0.14500
C3950       C  0.37273868  0.73268867  0.01392859     0.07700
C3951       C  0.35518230  0.74454238  0.99656870    -0.14500
C3952       C  0.32834419  0.73852163  0.99574603    -0.14500
C3953       C  0.31739021  0.72001465  0.01208246     0.07700
C3954       C  0.33557804  0.70598656  0.02719358    -0.14500
H3955       H  0.37453707  0.70286751  0.04241575     0.11700
H3956       H  0.36184154  0.76050977  0.98510796     0.11700
H3957       H  0.31569809  0.75067445  0.98455559     0.11700
H3958       H  0.32831405  0.69221558  0.04093043     0.11700
C3959       C  0.52977399  0.73635494  0.91847998    -0.14500
C3960       C  0.52458322  0.76207988  0.91272914     0.07700
C3961       C  0.52420603  0.77015826  0.88712288    -0.14500
C3962       C  0.52600846  0.75199989  0.86725155    -0.14500
C3963       C  0.52725334  0.72571199  0.87309779     0.07700
C3964       C  0.53078008  0.71810943  0.89869937    -0.14500
H3965       H  0.52981758  0.72995143  0.93829546     0.11700
H3966       H  0.52000016  0.79002477  0.88259456     0.11700
H3967       H  0.52344995  0.75827457  0.84758377     0.11700
H3968       H  0.53209726  0.69793918  0.90354505     0.11700
C3969       C  0.42207818  0.87443971  0.11962874    -0.14500
C3970       C  0.40893151  0.85985714  0.10072378     0.07700
C3971       C  0.38356288  0.86693788  0.09430187    -0.14500
C3972       C  0.37267045  0.88939708  0.10445960    -0.14500
C3973       C  0.38656925  0.90508199  0.12169618     0.07700
C3974       C  0.41084586  0.89675784  0.13024120    -0.14500
H3975       H  0.44164322  0.86948314  0.12508209     0.11700
H3976       H  0.37277046  0.85626243  0.07990484     0.11700
H3977       H  0.35357249  0.89487676  0.09813119     0.11700
H3978       H  0.42169342  0.90819954  0.14398963     0.11700
C3979       C  0.63771187  0.67574079  0.85259010    -0.14500
C3980       C  0.64732091  0.69976544  0.84530855     0.07700
C3981       C  0.63655972  0.71238437  0.82422266    -0.14500
C3982       C  0.61551333  0.70163347  0.81125621    -0.14500
C3983       C  0.60520592  0.67786512  0.81896219     0.07700
C3984       C  0.61699805  0.66471125  0.83933553    -0.14500
H3985       H  0.64575696  0.66590785  0.86903672     0.11700
H3986       H  0.64352754  0.73116670  0.81870679     0.11700
H3987       H  0.60674159  0.71239483  0.79580794     0.11700
H3988       H  0.60937696  0.64655772  0.84593517     0.11700
C3989       C  0.61457887  0.75686977  0.01819525    -0.14500
C3990       C  0.62343994  0.74191808  0.99705065     0.07700
C3991       C  0.60441639  0.72580024  0.98534062    -0.14500
C3992       C  0.57784126  0.72617813  0.99263710    -0.14500
C3993       C  0.56847313  0.74246290  0.01243676     0.07700
C3994       C  0.58784546  0.75707475  0.02563789    -0.14500
H3995       H  0.62774575  0.77005672  0.02763590     0.11700
H3996       H  0.60978027  0.71392968  0.96887681     0.11700
H3997       H  0.56418429  0.71559194  0.98086807     0.11700
H3998       H  0.58177298  0.77096128  0.04018713     0.11700
C3999       C  0.62003343  0.81181061  0.87015046    -0.14500
C4000       C  0.64291971  0.82254203  0.87998305     0.07700
C4001       C  0.65178399  0.84588004  0.86971120    -0.14500
C4002       C  0.63984610  0.85657235  0.84824419    -0.14500
C4003       C  0.61862918  0.84433209  0.83671596     0.07700
C4004       C  0.60808936  0.82252838  0.84863459    -0.14500
H4005       H  0.61239567  0.79409948  0.87783639     0.11700
H4006       H  0.66911879  0.85496667  0.87703881     0.11700
H4007       H  0.64793263  0.87384544  0.84004427     0.11700
H4008       H  0.59105534  0.81324619  0.84087273     0.11700
C4009       C  0.04074212  0.55955035  0.06577222    -0.14500
C4010       C  0.04699318  0.58410347  0.05678789     0.07700
C4011       C  0.05940362  0.60156853  0.07366729    -0.14500
C4012       C  0.06229111  0.59586626  0.09970382    -0.14500
C4013       C  0.05380020  0.57221760  0.10904772     0.07700
C4014       C  0.04431727  0.55360250  0.09166017    -0.14500
H4015       H  0.03102962  0.54577116  0.05337840     0.11700
H4016       H  0.06438280  0.62076103  0.06750080     0.11700
H4017       H  0.07030017  0.61023874  0.11265930     0.11700
H4018       H  0.03800219  0.53501389  0.09842570     0.11700
C4019       C  0.07341111  0.73300991  0.01645723    -0.14500
C4020       C  0.06685785  0.71783408  0.99489464     0.07700
C4021       C  0.08826269  0.70657216  0.98122531    -0.14500
C4022       C  0.11434502  0.70835935  0.98994352    -0.14500
C4023       C  0.12043845  0.72146253  0.01296089     0.07700
C4024       C  0.09936957  0.73456491  0.02535146    -0.14500
H4025       H  0.05837043  0.74252820  0.02744427     0.11700
H4026       H  0.08461457  0.69464307  0.96439102     0.11700
H4027       H  0.12938847  0.69804173  0.97953564     0.11700
H4028       H  0.10278784  0.74548755  0.04289896     0.11700
C4029       C  0.86620668  0.75138756  0.98815137    -0.14500
C4030       C  0.87059442  0.72725902  0.99932063     0.07700
C4031       C  0.84844319  0.71564774  0.01090853    -0.14500
C4032       C  0.82308460  0.72627782  0.00939995    -0.14500
C4033       C  0.81821838  0.74894872  0.99575746     0.07700
C4034       C  0.84071104  0.76187731  0.98640455    -0.14500
H4035       H  0.88211947  0.76139144  0.97915347     0.11700
H4036       H  0.85045217  0.69734929  0.02040196     0.11700
H4037       H  0.80713907  0.71576499  0.01752983     0.11700
H4038       H  0.83839505  0.77957989  0.97586865     0.11700
C4039       C  0.03041505  0.72704255  0.06803703    -0.14500
C4040       C  0.04018142  0.70337406  0.07631554     0.07700
C4041       C  0.05047416  0.70131173  0.10105851    -0.14500
C4042       C  0.04784118  0.72188655  0.11837885    -0.14500
C4043       C  0.03376661  0.74402869  0.11124632     0.07700
C4044       C  0.02734352  0.74739233  0.08535292    -0.14500
H4045       H  0.02161279  0.72863075  0.04922179     0.11700
H4046       H  0.05790610  0.68307976  0.10776498     0.11700
H4047       H  0.05378285  0.71902048  0.13814569     0.11700
H4048       H  0.01687524  0.76430012  0.07919174     0.11700
C4049       C  0.92399205  0.99547530  0.12582593    -0.14500
C4050       C  0.92181797  0.01429024  0.10686021     0.07700
C4051       C  0.93316158  0.03847460  0.11090643    -0.14500
C4052       C  0.94335331  0.04485489  0.13510818    -0.14500
C4053       C  0.94267729  0.02687793  0.15513123     0.07700
C4054       C  0.93456345  0.00161627  0.14967391    -0.14500
H4055       H  0.91555496  0.97661118  0.12292973     0.11700
H4056       H  0.93173910  0.05320036  0.09638139     0.11700
H4057       H  0.94984252  0.06433940  0.13872265     0.11700
H4058       H  0.93391081  0.98720301  0.16456967     0.11700
C4059       C  0.87850119  0.07666671  0.93026020    -0.14500
C4060       C  0.89532459  0.06199969  0.94551117     0.07700
C4061       C  0.92121707  0.06961846  0.94790421    -0.14500
C4062       C  0.92914336  0.09322238  0.93814591    -0.14500
C4063       C  0.91107750  0.10963944  0.92641436     0.07700
C4064       C  0.88625943  0.10042393  0.92098671    -0.14500
H4065       H  0.85845917  0.07122812  0.92782455     0.11700
H4066       H  0.93468479  0.05847863  0.95921683     0.11700
H4067       H  0.94863653  0.09964782  0.94215311     0.11700
H4068       H  0.87215322  0.11243764  0.91148608     0.11700
C4069       C  0.74096704  0.06909457  0.00534238    -0.14500
C4070       C  0.76032230  0.07640399  0.98767265     0.07700
C4071       C  0.75979108  0.10136114  0.97800180    -0.14500
C4072       C  0.74244799  0.11949680  0.98817205    -0.14500
C4073       C  0.72536822  0.11321553  0.00835932     0.07700
C4074       C  0.72363657  0.08743858  0.01578723    -0.14500
H4075       H  0.74130927  0.04999746  0.01343710     0.11700
H4076       H  0.77454367  0.10756420  0.96457273     0.11700
H4077       H  0.74368491  0.13902269  0.98147457     0.11700
H4078       H  0.71054522  0.08195785  0.03109290     0.11700
C4079       C  0.88663360  0.91226433  0.11950113    -0.14500
C4080       C  0.88412432  0.90766062  0.09279982     0.07700
C4081       C  0.89735944  0.88644354  0.08188682    -0.14500
C4082       C  0.91297218  0.87056554  0.09711296    -0.14500
C4083       C  0.91598595  0.87560782  0.12363102     0.07700
C4084       C  0.90232230  0.89651944  0.13465197    -0.14500
H4085       H  0.87694319  0.92845359  0.12870069     0.11700
H4086       H  0.89601206  0.88231945  0.06143415     0.11700
H4087       H  0.92297406  0.85452601  0.08800563     0.11700
H4088       H  0.90379330  0.90086522  0.15506776     0.11700
C4089       C  0.82231299  0.85861768  0.18627855    -0.14500
C4090       C  0.80283878  0.84295873  0.19675602     0.07700
C4091       C  0.80936745  0.81820640  0.20509921    -0.14500
C4092       C  0.83527734  0.81037876  0.20545551    -0.14500
C4093       C  0.85490954  0.82746353  0.19802801     0.07700
C4094       C  0.84814707  0.85118634  0.18749858    -0.14500
H4095       H  0.81797242  0.87775051  0.17944750     0.11700
H4096       H  0.79473748  0.80571749  0.21308988     0.11700
H4097       H  0.84007641  0.79162592  0.21298118     0.11700
H4098       H  0.86291155  0.86425098  0.18074104     0.11700
C4099       C  0.76243157  0.99304622  0.16757053    -0.14500
C4100       C  0.74379872  0.97480201  0.17473419     0.07700
C4101       C  0.73320641  0.95999748  0.15386687    -0.14500
C4102       C  0.74262076  0.96134046  0.12803244    -0.14500
C4103       C  0.76332554  0.97748571  0.12166440     0.07700
C4104       C  0.77230925  0.99392572  0.14193440    -0.14500
H4105       H  0.77023144  0.00606282  0.18187817     0.11700
H4106       H  0.71831479  0.94597749  0.15773053     0.11700
H4107       H  0.73478746  0.94848484  0.11350245     0.11700
H4108       H  0.78779201  0.00730169  0.13810674     0.11700
C4109       C  0.81271783  0.98602636  0.20493568    -0.14500
C4110       C  0.82235817  0.96316220  0.19388510     0.07700
C4111       C  0.84822898  0.96176828  0.18622204    -0.14500
C4112       C  0.86503773  0.98128912  0.19354309    -0.14500
C4113       C  0.85599180  0.00205577  0.20889285     0.07700
C4114       C  0.82941305  0.00565929  0.21215048    -0.14500
H4115       H  0.79328625  0.98686383  0.21245185     0.11700
H4116       H  0.85606921  0.94415288  0.17794909     0.11700
H4117       H  0.88550024  0.97840188  0.18994994     0.11700
H4118       H  0.82190268  0.02156708  0.22362103     0.11700
C4119       C  0.58063525  0.95644651  0.60475125    -0.14500
C4120       C  0.60681069  0.95154384  0.59927213     0.07700
C4121       C  0.61989250  0.93247599  0.61312681    -0.14500
C4122       C  0.60752498  0.91954067  0.63307706    -0.14500
C4123       C  0.58208624  0.92599521  0.64007975     0.07700
C4124       C  0.56846147  0.94404371  0.62533226    -0.14500
H4125       H  0.57016379  0.97103450  0.59428036     0.11700
H4126       H  0.64003695  0.92821034  0.60908994     0.11700
H4127       H  0.61851703  0.90591344  0.64430019     0.11700
H4128       H  0.54881198  0.94934227  0.63045501     0.11700
C4129       C  0.73393903  0.01812753  0.40160612    -0.14500
C4130       C  0.74747972  0.00802926  0.42338279     0.07700
C4131       C  0.76643590  0.98944699  0.41736876    -0.14500
C4132       C  0.76987774  0.97990755  0.39167323    -0.14500
C4133       C  0.75485937  0.98850287  0.37028224     0.07700
C4134       C  0.73739230  0.00860293  0.37587727    -0.14500
H4135       H  0.71934104  0.03283882  0.40454981     0.11700
H4136       H  0.77797336  0.98134793  0.43259447     0.11700
H4137       H  0.78398513  0.96471377  0.38875387     0.11700
H4138       H  0.72529537  0.01606286  0.36068944     0.11700
C4139       C  0.61745650  0.06479964  0.61980340    -0.14500
C4140       C  0.63175185  0.07841439  0.60142025     0.07700
C4141       C  0.62244816  0.10256347  0.59346782    -0.14500
C4142       C  0.59840709  0.11177409  0.60197433    -0.14500
C4143       C  0.58314049  0.09701882  0.61854718     0.07700
C4144       C  0.59337368  0.07388556  0.62808336    -0.14500
H4145       H  0.62382914  0.04609568  0.62626846     0.11700
H4146       H  0.63293176  0.11359630  0.57929238     0.11700
H4147       H  0.59140666  0.12999993  0.59486106     0.11700
H4148       H  0.58241157  0.06222915  0.64131629     0.11700
C4149       C  0.63671467  0.15162737  0.71375175    -0.14500
C4150       C  0.62326634  0.13236650  0.69995619     0.07700
C4151       C  0.63675668  0.11070369  0.69103097    -0.14500
C4152       C  0.66284720  0.10760696  0.69708673    -0.14500
C4153       C  0.67587412  0.12579270  0.71277986     0.07700
C4154       C  0.66266810  0.14820305  0.72045272    -0.14500
H4155       H  0.62677538  0.16878895  0.72056778     0.11700
H4156       H  0.62701631  0.09592437  0.67986742     0.11700
H4157       H  0.67229265  0.08998875  0.69081899     0.11700
H4158       H  0.67200584  0.16249667  0.73253986     0.11700
C4159       C  0.71177472  0.15191321  0.87030167    -0.14500
C4160       C  0.73568642  0.13921942  0.86976305     0.07700
C4161       C  0.75021650  0.13755333  0.89259394    -0.14500
C4162       C  0.74056924  0.14774642  0.91575914    -0.14500
C4163       C  0.71597587  0.15912046  0.91652486     0.07700
C4164       C  0.70190409  0.16157139  0.89351114    -0.14500
H4165       H  0.70020227  0.15337690  0.85301630     0.11700
H4166       H  0.76884800  0.12796972  0.89260433     0.11700
H4167       H  0.75187442  0.14589118  0.93316520     0.11700
H4168       H  0.68304641  0.17070940  0.89350613     0.11700
C4169       C  0.76252087  0.00970476  0.88934545    -0.14500
C4170       C  0.77771318  0.99707760  0.86985400     0.07700
C4171       C  0.78957746  0.97397664  0.87767291    -0.14500
C4172       C  0.78806835  0.96548906  0.90391285    -0.14500
C4173       C  0.77459416  0.97938602  0.92391301     0.07700
C4174       C  0.76100118  0.00121680  0.91540779    -0.14500
H4175       H  0.75275552  0.02751867  0.88476121     0.11700
H4176       H  0.80167308  0.96343360  0.86411862     0.11700
H4177       H  0.79976729  0.94907744  0.90919137     0.11700
H4178       H  0.75128035  0.01342348  0.92948262     0.11700
C4179       C  0.77931363  0.02275752  0.65469384    -0.14500
C4180       C  0.77066160  0.00474602  0.67345253     0.07700
C4181       C  0.75625084  0.98396321  0.66342154    -0.14500
C4182       C  0.74957357  0.98225269  0.63673804    -0.14500
C4183       C  0.75661279  0.00130471  0.61844957     0.07700
C4184       C  0.77243479  0.02119779  0.62805380    -0.14500
H4185       H  0.78925808  0.03991675  0.66124654     0.11700
H4186       H  0.74786939  0.97029401  0.67660361     0.11700
H4187       H  0.73684091  0.96683139  0.63074493     0.11700
H4188       H  0.77756259  0.03691659  0.61554118     0.11700
C4189       C  0.85736449  0.12933478  0.85132150    -0.14500
C4190       C  0.85790536  0.12639871  0.82445015     0.07700
C4191       C  0.87288247  0.14378727  0.80989156    -0.14500
C4192       C  0.88519013  0.16481172  0.82193039    -0.14500
C4193       C  0.88221629  0.16890800  0.84855481     0.07700
C4194       C  0.86915008  0.15037910  0.86309036    -0.14500
H4195       H  0.84636361  0.11632848  0.86324009     0.11700
H4196       H  0.87380238  0.14207801  0.78908270     0.11700
H4197       H  0.89553295  0.17860709  0.81033103     0.11700
H4198       H  0.86715326  0.15269376  0.88369295     0.11700
C4199       C  0.68229065  0.98341570  0.72501443    -0.14500
C4200       C  0.67456000  0.00909478  0.72276284     0.07700
C4201       C  0.64956566  0.01522283  0.71478519    -0.14500
C4202       C  0.63124921  0.99575045  0.71275719    -0.14500
C4203       C  0.63801797  0.97041983  0.71930131     0.07700
C4204       C  0.66402122  0.96402260  0.72325732    -0.14500
H4205       H  0.70180807  0.97864258  0.73087468     0.11700
H4206       H  0.64359338  0.03510022  0.71287956     0.11700
H4207       H  0.61132103  0.00102387  0.70915936     0.11700
H4208       H  0.66973712  0.94448888  0.72760103     0.11700
C4209       C  0.28885020  0.60423698  0.51933235    -0.14500
C4210       C  0.30449135  0.61034171  0.49783545     0.07700
C4211       C  0.30349831  0.59461129  0.47585354    -0.14500
C4212       C  0.28528218  0.57503567  0.47426458    -0.14500
C4213       C  0.26774890  0.57067284  0.49464040     0.07700
C4214       C  0.27054770  0.58447031  0.51774745    -0.14500
H4215       H  0.28968112  0.61575371  0.53684414     0.11700
H4216       H  0.31540444  0.59861088  0.45915780     0.11700
H4217       H  0.28388356  0.56422250  0.45634213     0.11700
H4218       H  0.25746544  0.58130743  0.53374865     0.11700
C4219       C  0.42861063  0.67762782  0.38686819    -0.14500
C4220       C  0.42880381  0.69872312  0.40381374     0.07700
C4221       C  0.44397588  0.72038968  0.39762474    -0.14500
C4222       C  0.46073367  0.71982214  0.37648050    -0.14500
C4223       C  0.46253826  0.69759048  0.36122099     0.07700
C4224       C  0.44542407  0.67705028  0.36576019    -0.14500
H4225       H  0.41678923  0.66096923  0.39081309     0.11700
H4226       H  0.44394382  0.73736949  0.40992660     0.11700
H4227       H  0.47360658  0.73588530  0.37330824     0.11700
H4228       H  0.44619634  0.65981346  0.35384859     0.11700
C4229       C  0.42140167  0.81587158  0.43694196    -0.14500
C4230       C  0.40239246  0.79920906  0.42720088     0.07700
C4231       C  0.39223722  0.80337200  0.40255122    -0.14500
C4232       C  0.40139930  0.82362690  0.38764987    -0.14500
C4233       C  0.42019472  0.84042073  0.39756375     0.07700
C4234       C  0.42998103  0.83653533  0.42236858    -0.14500
H4235       H  0.42942451  0.81306685  0.45596691     0.11700
H4236       H  0.37764497  0.79066944  0.39465165     0.11700
H4237       H  0.39382136  0.82622448  0.36841170     0.11700
H4238       H  0.44483012  0.84902050  0.43014720     0.11700
C4239       C  0.33271837  0.62329718  0.60470477    -0.14500
C4240       C  0.32351067  0.64744747  0.59723724     0.07700
C4241       C  0.30167404  0.65814117  0.60956627    -0.14500
C4242       C  0.28900753  0.64483534  0.62891458    -0.14500
C4243       C  0.29766949  0.62040056  0.63583605     0.07700
C4244       C  0.31962034  0.60966754  0.62373592    -0.14500
H4245       H  0.34938375  0.61466865  0.59525254     0.11700
H4246       H  0.29427053  0.67679359  0.60405939     0.11700
H4247       H  0.27206361  0.65332933  0.63799868     0.11700
H4248       H  0.32663082  0.59081530  0.62907204     0.11700
C4249       C  0.55326670  0.78565319  0.37096050    -0.14500
C4250       C  0.54048042  0.77672097  0.39306910     0.07700
C4251       C  0.51456705  0.78379497  0.39739041    -0.14500
C4252       C  0.50279022  0.80185878  0.38145663    -0.14500
C4253       C  0.51699474  0.81307603  0.36141067     0.07700
C4254       C  0.54180237  0.80406791  0.35555035    -0.14500
H4255       H  0.57310460  0.78031327  0.36689250     0.11700
H4256       H  0.50422987  0.77719802  0.41425402     0.11700
H4257       H  0.48361238  0.80889763  0.38633371     0.11700
H4258       H  0.55295678  0.81257121  0.34013523     0.11700
C4259       C  0.70004763  0.85887484  0.41059214    -0.14500
C4260       C  0.67332287  0.85483283  0.40849949     0.07700
C4261       C  0.65956074  0.86665770  0.38856534    -0.14500
C4262       C  0.67240144  0.88086535  0.37011229    -0.14500
C4263       C  0.69929394  0.88367630  0.37120074     0.07700
C4264       C  0.71297288  0.87345272  0.39212829    -0.14500
H4265       H  0.71105820  0.84995963  0.42581317     0.11700
H4266       H  0.63884502  0.86430422  0.38669410     0.11700
H4267       H  0.66137140  0.88871670  0.35431260     0.11700
H4268       H  0.73379427  0.87528840  0.39331968     0.11700
C4269       C  0.50213698  0.73955176  0.55162492    -0.14500
C4270       C  0.51695639  0.76193184  0.54788632     0.07700
C4271       C  0.50305880  0.78538567  0.54673023    -0.14500
C4272       C  0.47553908  0.78603687  0.54684679    -0.14500
C4273       C  0.46074679  0.76337026  0.54899817     0.07700
C4274       C  0.47474670  0.74031013  0.55253853    -0.14500
H4275       H  0.51168814  0.72098336  0.55142849     0.11700
H4276       H  0.51337633  0.80301951  0.54294685     0.11700
H4277       H  0.46584327  0.80404047  0.54287803     0.11700
H4278       H  0.46442922  0.72226038  0.55307939     0.11700
C4279       C  0.56927799  0.70550172  0.41255697    -0.14500
C4280       C  0.59544984  0.70414096  0.41923565     0.07700
C4281       C  0.61428363  0.70861103  0.40013448    -0.14500
C4282       C  0.60720734  0.71727774  0.37588058    -0.14500
C4283       C  0.58110216  0.72041603  0.36977079     0.07700
C4284       C  0.56215367  0.71332157  0.38791078    -0.14500
H4285       H  0.55434479  0.70179495  0.42669550     0.11700
H4286       H  0.63461612  0.70654541  0.40418701     0.11700
H4287       H  0.62217390  0.72177369  0.36203232     0.11700
H4288       H  0.54176653  0.71468624  0.38339430     0.11700
C4289       C  0.63325938  0.90964944  0.45209649    -0.14500
C4290       C  0.61271231  0.90128634  0.46739315     0.07700
C4291       C  0.59096593  0.91734658  0.47080950    -0.14500
C4292       C  0.59167334  0.94282993  0.46268234    -0.14500
C4293       C  0.61418045  0.95238627  0.45116402     0.07700
C4294       C  0.63348252  0.93477985  0.44310703    -0.14500
H4295       H  0.64948299  0.89706026  0.44778224     0.11700
H4296       H  0.57417933  0.91079009  0.48138633     0.11700
H4297       H  0.57601287  0.95568449  0.46815797     0.11700
H4298       H  0.65070665  0.94124659  0.43320797     0.11700
C4299       C  0.93700469  0.88671342  0.58882323    -0.14500
C4300       C  0.91151803  0.89441427  0.58339999     0.07700
C4301       C  0.89597125  0.90396601  0.60370738    -0.14500
C4302       C  0.90556367  0.90502315  0.62896237    -0.14500
C4303       C  0.93043387  0.89568707  0.63432803     0.07700
C4304       C  0.94615068  0.88682364  0.61403134    -0.14500
H4305       H  0.94977542  0.87995946  0.57361784     0.11700
H4306       H  0.87623019  0.90993376  0.60021372     0.11700
H4307       H  0.89345877  0.91262883  0.64435476     0.11700
H4308       H  0.96582141  0.88057385  0.61761509     0.11700
C4309       C  0.75443990  0.93917785  0.46121806    -0.14500
C4310       C  0.73059665  0.92748745  0.45576583     0.07700
C4311       C  0.72910312  0.90070102  0.45479441    -0.14500
C4312       C  0.75070169  0.88584055  0.46068782    -0.14500
C4313       C  0.77400382  0.89758261  0.46854339     0.07700
C4314       C  0.77595359  0.92439835  0.46779407    -0.14500
H4315       H  0.75564087  0.95974181  0.46355852     0.11700
H4316       H  0.71067110  0.89138967  0.45170896     0.11700
H4317       H  0.74844788  0.86516326  0.46099550     0.11700
H4318       H  0.79354956  0.93398077  0.47372397     0.11700
C4319       C  0.74751062  0.74492935  0.51667479    -0.14500
C4320       C  0.76603422  0.76306087  0.52497421     0.07700
C4321       C  0.75658778  0.78431987  0.53935286    -0.14500
C4322       C  0.72979459  0.78879225  0.54297096    -0.14500
C4323       C  0.71110181  0.77130453  0.53380800     0.07700
C4324       C  0.72065374  0.74859845  0.52176905    -0.14500
H4325       H  0.75357882  0.72870833  0.50483051     0.11700
H4326       H  0.76992204  0.79917807  0.54527537     0.11700
H4327       H  0.72361430  0.80695712  0.55141074     0.11700
H4328       H  0.70721307  0.73471660  0.51406412     0.11700
C4329       C  0.87512712  0.79000354  0.64461262    -0.14500
C4330       C  0.89375557  0.79773824  0.62631620     0.07700
C4331       C  0.91641060  0.78300586  0.62344998    -0.14500
C4332       C  0.91777006  0.75860422  0.63414135    -0.14500
C4333       C  0.89712542  0.74923622  0.64888383     0.07700
C4334       C  0.87683797  0.76576224  0.65586679    -0.14500
H4335       H  0.85766116  0.80118763  0.64772963     0.11700
H4336       H  0.93144492  0.78858759  0.61005722     0.11700
H4337       H  0.93427215  0.74646325  0.62959887     0.11700
H4338       H  0.86125668  0.75910517  0.66807970     0.11700
C4339       C  0.78920831  0.82043710  0.39740363    -0.14500
C4340       C  0.81607351  0.81756322  0.40068688     0.07700
C4341       C  0.83246289  0.81924995  0.37910131    -0.14500
C4342       C  0.82253931  0.82689417  0.35542427    -0.14500
C4343       C  0.79629525  0.83308129  0.35332778     0.07700
C4344       C  0.77942737  0.82849431  0.37388796    -0.14500
H4345       H  0.77598772  0.81898702  0.41356718     0.11700
H4346       H  0.85316148  0.81673800  0.38098930     0.11700
H4347       H  0.83572410  0.83058139  0.33961830     0.11700
H4348       H  0.75908273  0.83332421  0.37241318     0.11700
C4349       C  0.14761744  0.63830825  0.64120541    -0.14500
C4350       C  0.16362838  0.65219283  0.62446096     0.07700
C4351       C  0.18675481  0.64086614  0.61558792    -0.14500
C4352       C  0.19452381  0.61692345  0.62469306    -0.14500
C4353       C  0.17951240  0.60407151  0.64315872     0.07700
C4354       C  0.15547755  0.61450589  0.65047402    -0.14500
H4355       H  0.12932641  0.64618631  0.64784384     0.11700
H4356       H  0.19920916  0.65077700  0.60216104     0.11700
H4357       H  0.21327618  0.60953078  0.61880796     0.11700
H4358       H  0.14350153  0.60507900  0.66467325     0.11700
C4359       C  0.02460090  0.75492330  0.69683606    -0.14500
C4360       C  0.99919652  0.75599282  0.68742501     0.07700
C4361       C  0.99434078  0.76907112  0.66449054    -0.14500
C4362       C  0.01504395  0.77551015  0.64844774    -0.14500
C4363       C  0.04047196  0.76877760  0.65543796     0.07700
C4364       C  0.04523236  0.76099199  0.68076204    -0.14500
H4365       H  0.02874198  0.74540477  0.71482034     0.11700
H4366       H  0.97484308  0.77057587  0.65707806     0.11700
H4367       H  0.01081748  0.78243178  0.62930807     0.11700
H4368       H  0.06466524  0.75652884  0.68705260     0.11700
C4369       C  0.97780264  0.78632162  0.49593246    -0.14500
C4370       C  0.96069537  0.76708662  0.50506793     0.07700
C4371       C  0.97215882  0.74308003  0.51042581    -0.14500
C4372       C  0.99961862  0.73953336  0.50893562    -0.14500
C4373       C  0.01688660  0.75966441  0.50206030     0.07700
C4374       C  0.00499799  0.78282573  0.49470572    -0.14500
H4375       H  0.97025195  0.80521859  0.49157949     0.11700
H4376       H  0.96029003  0.72770320  0.51781549     0.11700
H4377       H  0.00754534  0.72148397  0.51533211     0.11700
H4378       H  0.01695153  0.79927567  0.49032126     0.11700
C4379       C  0.22982346  0.76242773  0.50823748    -0.14500
C4380       C  0.21227663  0.75062229  0.52542399     0.07700
C4381       C  0.22204496  0.74434726  0.54995432    -0.14500
C4382       C  0.24809783  0.74795389  0.55668195    -0.14500
C4383       C  0.26633746  0.75738295  0.53901577     0.07700
C4384       C  0.25651957  0.76562426  0.51492407    -0.14500
H4385       H  0.22347580  0.76744197  0.48908421     0.11700
H4386       H  0.20938270  0.73570161  0.56405432     0.11700
H4387       H  0.25454212  0.74098159  0.57519039     0.11700
H4388       H  0.26983597  0.77243003  0.50041121     0.11700
C4389       C  0.14565062  0.60656814  0.56021303    -0.14500
C4390       C  0.12329074  0.61838027  0.55082046     0.07700
C4391       C  0.10466028  0.60359468  0.53788877    -0.14500
C4392       C  0.10984305  0.57801411  0.53162228    -0.14500
C4393       C  0.13370426  0.56697663  0.53828737     0.07700
C4394       C  0.15070473  0.58088959  0.55426307    -0.14500
H4395       H  0.15985198  0.61755358  0.57091336     0.11700
H4396       H  0.08702816  0.61231063  0.53084971     0.11700
H4397       H  0.09621441  0.56770373  0.51956702     0.11700
H4398       H  0.16909973  0.57285086  0.56004668     0.11700
C4399       C  0.06356419  0.85086753  0.59765221    -0.14500
C4400       C  0.08491607  0.83734288  0.60717145     0.07700
C4401       C  0.08631054  0.83137573  0.63341193    -0.14500
C4402       C  0.06607582  0.83803617  0.64984139    -0.14500
C4403       C  0.04468618  0.85123264  0.64021258     0.07700
C4404       C  0.04351954  0.85781183  0.61415861    -0.14500
H4405       H  0.06201936  0.85521802  0.57733644     0.11700
H4406       H  0.10242856  0.82049216  0.64096553     0.11700
H4407       H  0.06760597  0.83390520  0.67020881     0.11700
H4408       H  0.02736679  0.86882369  0.60681722     0.11700
C4409       C  0.62979453  0.40031005  0.40686222    -0.14500
C4410       C  0.61855417  0.41310813  0.38592057     0.07700
C4411       C  0.59383472  0.40573031  0.37766020    -0.14500
C4412       C  0.58039734  0.38643653  0.39047227    -0.14500
C4413       C  0.59147880  0.37392340  0.41167603     0.07700
C4414       C  0.61648095  0.38085840  0.41951768    -0.14500
H4415       H  0.64894306  0.40527912  0.41353851     0.11700
H4416       H  0.58477277  0.41499208  0.36141566     0.11700
H4417       H  0.56105187  0.38172938  0.38408953     0.11700
H4418       H  0.62545101  0.37190905  0.43599712     0.11700
C4419       C  0.58486234  0.52485827  0.26364406    -0.14500
C4420       C  0.61070170  0.52934681  0.25702037     0.07700
C4421       C  0.61675268  0.53622824  0.23154082    -0.14500
C4422       C  0.59855714  0.53219944  0.21213011    -0.14500
C4423       C  0.57464356  0.52119956  0.21833542     0.07700
C4424       C  0.56716141  0.51989674  0.24422669    -0.14500
H4425       H  0.57955720  0.52003437  0.28323021     0.11700
H4426       H  0.63646531  0.54047924  0.22592463     0.11700
H4427       H  0.60476990  0.53320945  0.19219423     0.11700
H4428       H  0.55014503  0.50932011  0.24946802     0.11700
C4429       C  0.69692645  0.33233810  0.32542378    -0.14500
C4430       C  0.68671578  0.35149466  0.34184279     0.07700
C4431       C  0.67703646  0.34468057  0.36608757    -0.14500
C4432       C  0.68057654  0.31978726  0.37510877    -0.14500
C4433       C  0.69471701  0.30172542  0.36033749     0.07700
C4434       C  0.70088203  0.30754175  0.33460606    -0.14500
H4435       H  0.70411157  0.33708314  0.30642256     0.11700
H4436       H  0.66835493  0.35903521  0.37874989     0.11700
H4437       H  0.67512245  0.31581924  0.39484112     0.11700
H4438       H  0.71143873  0.29392410  0.32256797     0.11700
C4439       C  0.68795230  0.59161968  0.26349454    -0.14500
C4440       C  0.69951133  0.58729592  0.28751064     0.07700
C4441       C  0.69580077  0.60544759  0.30745442    -0.14500
C4442       C  0.67510305  0.62251508  0.30608063    -0.14500
C4443       C  0.65904685  0.62190340  0.28434726     0.07700
C4444       C  0.66711814  0.60850293  0.26212235    -0.14500
H4445       H  0.69143799  0.57870832  0.24729758     0.11700
H4446       H  0.70550437  0.60326412  0.32578188     0.11700
H4447       H  0.66990633  0.63373311  0.32306464     0.11700
H4448       H  0.65582378  0.60909549  0.24458954     0.11700
C4449       C  0.65638317  0.64071735  0.15126587    -0.14500
C4450       C  0.66056981  0.61391570  0.15140192     0.07700
C4451       C  0.64667909  0.59923283  0.16932651    -0.14500
C4452       C  0.62913223  0.61059884  0.18632372    -0.14500
C4453       C  0.62475024  0.63729741  0.18644904     0.07700
C4454       C  0.63880417  0.65236154  0.16884690    -0.14500
H4455       H  0.66669447  0.65261310  0.13769809     0.11700
H4456       H  0.64900352  0.57859450  0.17016825     0.11700
H4457       H  0.61912715  0.59816251  0.19965153     0.11700
H4458       H  0.63610404  0.67300691  0.16855554     0.11700
C4459       C  0.79231041  0.62750806  0.99642492    -0.14500
C4460       C  0.77596932  0.63463944  0.01719469     0.07700
C4461       C  0.76954802  0.66062855  0.02081756    -0.14500
C4462       C  0.77560725  0.67822680  0.00171399    -0.14500
C4463       C  0.78825176  0.67008133  0.97904171     0.07700
C4464       C  0.79790104  0.64504975  0.97710819    -0.14500
H4465       H  0.79828829  0.60770510  0.99348128     0.11700
H4466       H  0.75734643  0.66681314  0.03675433     0.11700
H4467       H  0.76742487  0.69737650  0.00317697     0.11700
H4468       H  0.80737796  0.63843612  0.95958534     0.11700
C4469       C  0.75792497  0.48587318  0.16992835    -0.14500
C4470       C  0.73574815  0.47434128  0.15872818     0.07700
C4471       C  0.72059537  0.45949303  0.17562909    -0.14500
C4472       C  0.72652662  0.45751306  0.20233979    -0.14500
C4473       C  0.74709849  0.47119601  0.21406426     0.07700
C4474       C  0.76316847  0.48483662  0.19691659    -0.14500
H4475       H  0.77007234  0.49780479  0.15816466     0.11700
H4476       H  0.70279962  0.45105005  0.16864821     0.11700
H4477       H  0.71308543  0.44749115  0.21448004     0.11700
H4478       H  0.77867009  0.49650771  0.20464841     0.11700
C4479       C  0.85614694  0.55014099  0.05536540    -0.14500
C4480       C  0.83632529  0.54786666  0.03701982     0.07700
C4481       C  0.84145191  0.55413002  0.01119191    -0.14500
C4482       C  0.86480037  0.56548070  0.00457255    -0.14500
C4483       C  0.88346485  0.57002180  0.02352451     0.07700
C4484       C  0.87971183  0.56108765  0.04857685    -0.14500
H4485       H  0.85277585  0.54536065  0.07535968     0.11700
H4486       H  0.82664860  0.55250705  0.99655504     0.11700
H4487       H  0.86761153  0.57230599  0.98509548     0.11700
H4488       H  0.89400292  0.56471234  0.06338533     0.11700
C4489       C  0.58870441  0.50719360  0.07601202    -0.14500
C4490       C  0.59994428  0.52574714  0.09226699     0.07700
C4491       C  0.58649641  0.53445104  0.11415241    -0.14500
C4492       C  0.56348581  0.52243920  0.12131215    -0.14500
C4493       C  0.55458409  0.50081113  0.10730207     0.07700
C4494       C  0.56618513  0.49471254  0.08351421    -0.14500
H4495       H  0.59871790  0.50050239  0.05879902     0.11700
H4496       H  0.59461927  0.54926413  0.12651815     0.11700
H4497       H  0.55480834  0.52784064  0.13963946     0.11700
H4498       H  0.55968813  0.47831215  0.07224915     0.11700
C4499       C  0.73076883  0.36578763  0.51799236    -0.14500
C4500       C  0.75164995  0.35977713  0.53416829     0.07700
C4501       C  0.76072491  0.33442436  0.53467813    -0.14500
C4502       C  0.75114137  0.31639068  0.51680334    -0.14500
C4503       C  0.73333479  0.32390457  0.49781235     0.07700
C4504       C  0.72208047  0.34826844  0.49946414    -0.14500
H4505       H  0.72310966  0.38503371  0.51784119     0.11700
H4506       H  0.77681459  0.32927096  0.54689569     0.11700
H4507       H  0.76002301  0.29753151  0.51570090     0.11700
H4508       H  0.70851143  0.35457265  0.48496399     0.11700
C4509       C  0.85647976  0.41374487  0.67120096    -0.14500
C4510       C  0.84852794  0.43857207  0.66445472     0.07700
C4511       C  0.85848282  0.45967303  0.67865178    -0.14500
C4512       C  0.87542118  0.45600402  0.69931184    -0.14500
C4513       C  0.88274088  0.43115836  0.70657272     0.07700
C4514       C  0.87324929  0.41008188  0.69203579    -0.14500
H4515       H  0.84931653  0.39710033  0.66075805     0.11700
H4516       H  0.85302690  0.47918482  0.67395708     0.11700
H4517       H  0.88244604  0.47259287  0.70988530     0.11700
H4518       H  0.87857576  0.39058346  0.69690187     0.11700
C4519       C  0.72629515  0.49533410  0.45051468    -0.14500
C4520       C  0.74898010  0.49690235  0.46533197     0.07700
C4521       C  0.77253430  0.49254633  0.45149213    -0.14500
C4522       C  0.77318950  0.48596773  0.42458676    -0.14500
C4523       C  0.75015844  0.48301808  0.41034568     0.07700
C4524       C  0.72690060  0.48830734  0.42400341    -0.14500
H4525       H  0.70768786  0.49689210  0.46006007     0.11700
H4526       H  0.79053717  0.49218080  0.46203034     0.11700
H4527       H  0.79154460  0.48123076  0.41557988     0.11700
H4528       H  0.70860592  0.48515455  0.41442200     0.11700
C4529       C  0.66184597  0.39904166  0.52177948    -0.14500
C4530       C  0.66306106  0.41235857  0.54536597     0.07700
C4531       C  0.64018490  0.41640820  0.55971613    -0.14500
C4532       C  0.61667707  0.40627864  0.55099936    -0.14500
C4533       C  0.61603033  0.39162644  0.52816013     0.07700
C4534       C  0.63864844  0.38864620  0.51338409    -0.14500
H4535       H  0.67894494  0.39606935  0.51002436     0.11700
H4536       H  0.64052781  0.42718821  0.57770234     0.11700
H4537       H  0.59935829  0.40891464  0.56255615     0.11700
H4538       H  0.63847027  0.37790913  0.49538461     0.11700
C4539       C  0.86215415  0.56544514  0.58911049    -0.14500
C4540       C  0.86158891  0.54132617  0.60095410     0.07700
C4541       C  0.88067721  0.53494849  0.61877496    -0.14500
C4542       C  0.89961642  0.55277989  0.62552111    -0.14500
C4543       C  0.89934395  0.57771603  0.61519915     0.07700
C4544       C  0.88072374  0.58368132  0.59641448    -0.14500
H4545       H  0.84754373  0.57053420  0.57513559     0.11700
H4546       H  0.88062387  0.51628949  0.62785332     0.11700
H4547       H  0.91339688  0.54750980  0.64022240     0.11700
H4548       H  0.87976516  0.60274571  0.58827767     0.11700
C4549       C  0.89121399  0.52103564  0.75294646    -0.14500
C4550       C  0.86618125  0.51566168  0.74389812     0.07700
C4551       C  0.85987038  0.52212401  0.71847100    -0.14500
C4552       C  0.87664059  0.53751680  0.70420865    -0.14500
C4553       C  0.89996436  0.54587265  0.71506919     0.07700
C4554       C  0.90818245  0.53574490  0.73844192    -0.14500
H4555       H  0.89619807  0.51743286  0.77273001     0.11700
H4556       H  0.84069776  0.51845694  0.71098985     0.11700
H4557       H  0.86996530  0.54557777  0.68624470     0.11700
H4558       H  0.92582400  0.54265324  0.74732839     0.11700
C4559       C  0.83909190  0.59793976  0.91652755    -0.14500
C4560       C  0.84648860  0.58851870  0.89202127     0.07700
C4561       C  0.87163906  0.59400188  0.88312692    -0.14500
C4562       C  0.88911480  0.60764452  0.89847941    -0.14500
C4563       C  0.88212570  0.61630668  0.92333014     0.07700
C4564       C  0.85673737  0.61160586  0.93202879    -0.14500
H4565       H  0.81985141  0.59435563  0.92393284     0.11700
H4566       H  0.87808454  0.58747894  0.86425947     0.11700
H4567       H  0.90839057  0.61090222  0.89098185     0.11700
H4568       H  0.85074083  0.61780485  0.95113439     0.11700
C4569       C  0.69982835  0.52726738  0.92970570    -0.14500
C4570       C  0.70803880  0.50939717  0.91066827     0.07700
C4571       C  0.71724994  0.48550854  0.91994689    -0.14500
C4572       C  0.72099890  0.48101202  0.94681593    -0.14500
C4573       C  0.71437527  0.49981727  0.96560540     0.07700
C4574       C  0.70275549  0.52251374  0.95634745    -0.14500
H4575       H  0.69339750  0.54618376  0.92393089     0.11700
H4576       H  0.72391206  0.47106601  0.90640690     0.11700
H4577       H  0.73071689  0.46357209  0.95266596     0.11700
H4578       H  0.69814427  0.53790591  0.96981383     0.11700
C4579       C  0.70795633  0.50568161  0.69667558    -0.14500
C4580       C  0.71679940  0.52424717  0.71472909     0.07700
C4581       C  0.72810868  0.54649320  0.70393617    -0.14500
C4582       C  0.73283493  0.54877329  0.67696974    -0.14500
C4583       C  0.72539060  0.52944429  0.65907725     0.07700
C4584       C  0.71152891  0.50859769  0.66954996    -0.14500
H4585       H  0.70016101  0.48774693  0.70362302     0.11700
H4586       H  0.73582756  0.56113903  0.71669815     0.11700
H4587       H  0.74413469  0.56490842  0.67032506     0.11700
H4588       H  0.70579464  0.49306337  0.65690345     0.11700
C4589       C  0.79446403  0.64736841  0.86698501    -0.14500
C4590       C  0.78511306  0.64291646  0.84204748     0.07700
C4591       C  0.78548553  0.66293183  0.82411445    -0.14500
C4592       C  0.79145662  0.68796837  0.83214394    -0.14500
C4593       C  0.79760514  0.69299232  0.85804865     0.07700
C4594       C  0.80145418  0.67209863  0.87469084    -0.14500
H4595       H  0.79546039  0.63191314  0.88079057     0.11700
H4596       H  0.77917304  0.65960002  0.80447886     0.11700
H4597       H  0.78868671  0.70362802  0.81884976     0.11700
H4598       H  0.80664911  0.67516890  0.89470259     0.11700
C4599       C  0.83182041  0.44959538  0.78223487    -0.14500
C4600       C  0.81759735  0.44072048  0.80325303     0.07700
C4601       C  0.83027243  0.43661872  0.82673718    -0.14500
C4602       C  0.85482945  0.44677693  0.83086575    -0.14500
C4603       C  0.86790283  0.45879947  0.81072863     0.07700
C4604       C  0.85690352  0.45828767  0.78592337    -0.14500
H4605       H  0.82306643  0.45147924  0.76344258     0.11700
H4606       H  0.82028536  0.42763034  0.84260752     0.11700
H4607       H  0.86335560  0.44547962  0.84978825     0.11700
H4608       H  0.86749580  0.46510050  0.76934675     0.11700
loop_ 
_geom_bond_atom_site_label_1 
_geom_bond_atom_site_label_2 
_geom_bond_distance 
_geom_bond_site_symmetry_2 
_ccdc_geom_bond_type 
Zr1           O2   2.452       .  S
Zr1           O3   2.437       .  S
Zr1           O4   2.470       .  S
Zr1           O7   2.428       .  S
Zr1           O9   2.368       .  S
Zr1          O10   2.401       .  S
Zr1          O11   2.404       .  S
Zr1          O12   2.302       .  S
O2           H58   0.991       .  S
O2           H66   0.990       .  S
O3           C23   1.283       .  A
O4           C25   1.291       .  A
O5          Zr15   2.598       .  S
O5           C24   1.319       .  A
O6          Zr14   2.419       .  S
O6           C25   1.283       .  A
O7           C24   1.283       .  A
O8          Zr16   2.411       .  S
O8           C23   1.277       .  A
O9          Zr14   2.371       .  S
O9          Zr16   2.374       .  S
O10         Zr15   2.422       .  S
O10         Zr16   2.397       .  S
O10          H45   0.965       .  S
O11         Zr14   2.390       .  S
O11         Zr31   2.420       .  S
O11          H48   0.964       .  S
O12         Zr15   2.283       .  S
O12         Zr31   2.293       .  S
Zr13         O38   2.446       .  S
Zr13         O32   2.450       .  S
Zr13         O40   2.437       .  S
Zr13         O28   2.461       .  S
Zr13         O19   2.389       .  S
Zr13         O20   2.423       .  S
Zr13         O21   2.395       .  S
Zr13         O22   2.424       .  S
Zr14         O33   2.433       .  S
Zr14         O26   2.435       .  S
Zr14         O27   2.395       .  S
Zr14         O20   2.388       .  S
Zr14         O21   2.387       .  S
Zr15         O17   2.444       .  S
Zr15         O39   2.443       .  S
Zr15         O41   2.645       .  S
Zr15         O19   2.359       .  S
Zr15         O22   2.408       .  S
Zr16         O42   2.441       .  S
Zr16         O43   2.446       .  S
Zr16         O18   2.446       .  S
Zr16         O19   2.350       .  S
Zr16         O20   2.410       .  S
O17          H54   0.991       .  S
O18          H49   0.991       .  S
O18          H63   0.990       .  S
O20          H46   0.965       .  S
O21         Zr31   2.403       .  S
O22         Zr31   2.414       .  S
O22          H47   0.964       .  S
C23        C4590   1.467       .  S
C24        C4570   1.528       .  S
C25        C4560   1.496       .  S
O26          H62   0.990       .  S
O27          C29   1.279       .  A
O28          C29   1.288       .  A
C29        C4550   1.476       .  S
O30         Zr31   2.428       .  S
O30          H59   0.990       .  S
Zr31         O34   2.450       .  S
Zr31         O35   2.432       .  S
Zr31         O36   2.438       .  S
O32          C37   1.277       .  A
O33          H50   0.990       .  S
O33          H65   0.990       .  S
O34          H51   0.991       .  S
O35          H55   0.990       .  S
O35          H64   0.990       .  S
O36          C37   1.271       .  A
C37        C4600   1.470       .  S
O38          H57   0.990       .  S
O38          H61   0.991       .  S
O39          H53   0.990       .  S
O39          H60   0.990       .  S
O40          C44   1.282       .  A
O41          C44   1.328       .  A
O42          H52   0.989       .  S
O43          H56   0.990       .  S
C44        C4580   1.535       .  S
Zr67         O68   2.449       .  S
Zr67         O69   2.435       .  S
Zr67         O70   2.399       .  S
Zr67         O73   2.389       .  S
Zr67         O75   2.378       .  S
Zr67         O76   2.391       .  S
Zr67         O77   2.418       .  S
Zr67         O78   2.372       .  S
O68         H124   0.989       .  S
O68         H132   0.990       .  S
O69          C89   1.283       .  A
O70          C91   1.269       .  A
O71         Zr81   2.639       .  S
O71          C90   1.327       .  A
O72         Zr80   2.477       .  S
O72          C91   1.285       .  A
O73          C90   1.274       .  A
O74         Zr82   2.414       .  S
O74          C89   1.279       .  A
O75         Zr80   2.402       .  S
O75         Zr82   2.353       .  S
O76         Zr81   2.395       .  S
O76         Zr82   2.415       .  S
O76         H111   0.964       .  S
O77         Zr80   2.412       .  S
O77         Zr97   2.416       .  S
O77         H114   0.966       .  S
O78         Zr81   2.365       .  S
O78         Zr97   2.370       .  S
Zr79        O104   2.442       .  S
Zr79         O98   2.441       .  S
Zr79        O106   2.426       .  S
Zr79         O94   2.405       .  S
Zr79         O85   2.380       .  S
Zr79         O86   2.423       .  S
Zr79         O87   2.373       .  S
Zr79         O88   2.395       .  S
Zr80         O99   2.436       .  S
Zr80         O92   2.435       .  S
Zr80         O93   2.475       .  S
Zr80         O86   2.408       .  S
Zr80         O87   2.405       .  S
Zr81         O83   2.434       .  S
Zr81        O105   2.441       .  S
Zr81        O107   2.617       .  S
Zr81         O85   2.376       .  S
Zr81         O88   2.409       .  S
Zr82        O108   2.435       .  S
Zr82        O109   2.437       .  S
Zr82         O84   2.438       .  S
Zr82         O85   2.359       .  S
Zr82         O86   2.423       .  S
O83         H120   0.990       .  S
O84         H115   0.990       .  S
O84         H129   0.990       .  S
O86         H112   0.967       .  S
O87         Zr97   2.367       .  S
O88         Zr97   2.405       .  S
O88         H113   0.965       .  S
C89        C4530   1.472       .  S
C90        C4520   1.531       .  S
C91        C4500   1.476       .  S
O92         H128   0.990       .  S
O93          C95   1.293       .  A
O94          C95   1.279       .  A
C95        C4510   1.493       .  S
O96         Zr97   2.437       .  S
O96         H125   0.990       .  S
Zr97        O100   2.437       .  S
Zr97        O101   2.437       .  S
Zr97        O102   2.416       .  S
O98         C103   1.285       .  A
O99         H116   0.990       .  S
O99         H131   0.990       .  S
O100        H117   0.990       .  S
O101        H121   0.990       .  S
O101        H130   0.990       .  S
O102        C103   1.279       .  A
C103       C4540   1.466       .  S
O104        H123   0.990       .  S
O104        H127   0.990       .  S
O105        H119   0.990       .  S
O105        H126   0.989       .  S
O106        C110   1.278       .  A
O107        C110   1.320       .  A
O108        H118   0.990       .  S
O109        H122   0.990       .  S
C110       C4583   1.537       .  S
Zr133       O134   2.443       .  S
Zr133       O135   2.460       .  S
Zr133       O136   2.414       .  S
Zr133       O139   2.444       .  S
Zr133       O141   2.375       .  S
Zr133       O142   2.400       .  S
Zr133       O143   2.426       .  S
Zr133       O144   2.367       .  S
O134        H190   0.991       .  S
O134        H198   0.989       .  S
O135        C155   1.286       .  A
O136        C157   1.281       .  A
O137       Zr147   2.641       .  S
O137        C156   1.327       .  A
O138       Zr146   2.472       .  S
O138        C157   1.290       .  A
O139        C156   1.285       .  A
O140       Zr148   2.384       .  S
O140        C155   1.273       .  A
O141       Zr146   2.398       .  S
O141       Zr148   2.368       .  S
O142       Zr147   2.411       .  S
O142       Zr148   2.421       .  S
O142        H177   0.965       .  S
O143       Zr146   2.397       .  S
O143       Zr163   2.429       .  S
O143        H180   0.967       .  S
O144       Zr147   2.341       .  S
O144       Zr163   2.365       .  S
Zr145       O170   2.444   1_554  S
Zr145       O164   2.404       .  S
Zr145       O172   2.406   1_554  S
Zr145       O160   2.409       .  S
Zr145       O152   2.401       .  S
Zr145       O153   2.373       .  S
Zr145       O154   2.385       .  S
Zr145       O151   2.293       .  S
Zr146       O165   2.440       .  S
Zr146       O158   2.436       .  S
Zr146       O159   2.447       .  S
Zr146       O152   2.416       .  S
Zr146       O153   2.393       .  S
Zr147       O149   2.443       .  S
Zr147       O171   2.443       .  S
Zr147       O173   2.591       .  S
Zr147       O154   2.393       .  S
Zr147       O151   2.307       .  S
Zr148       O174   2.431       .  S
Zr148       O175   2.439   1_554  S
Zr148       O150   2.452       .  S
Zr148       O152   2.388       .  S
Zr148       O151   2.301       .  S
O149        H186   0.991       .  S
O150        H181   0.989       .  S
O150        H195   0.991       .  S
O152        H178   0.966       .  S
O153       Zr163   2.340       .  S
O154       Zr163   2.407       .  S
O154        H179   0.966       .  S
C155       C4490   1.464       .  S
C156       C4470   1.538       .  S
C157       C4450   1.495       .  S
O158        H194   0.990       .  S
O159        C161   1.288       .  A
O160        C161   1.280       .  A
C161       C4460   1.477       .  S
O162       Zr163   2.436       .  S
O162        H191   0.990       .  S
Zr163       O166   2.435       .  S
Zr163       O167   2.438       .  S
Zr163       O168   2.426       .  S
O164        C169   1.279       .  A
O165        H182   0.990       .  S
O165        H197   0.990       .  S
O166        H183   0.990       .  S
O167        H187   0.990       .  S
O167        H196   0.990       .  S
O168        C169   1.283       .  A
C169       C4480   1.470       .  S
O170        H189   0.990       .  S
O170        H193   0.991       .  S
O171        H185   0.991       .  S
O171        H192   0.989       .  S
O172        C176   1.276       .  A
O173        C176   1.315   1_554  A
O174        H184   0.990       .  S
O175        H188   0.990       .  S
C176       C4573   1.526       .  S
Zr199       O200   2.439       .  S
Zr199       O201   2.399       .  S
Zr199       O202   2.395       .  S
Zr199       O205   2.398       .  S
Zr199       O207   2.374       .  S
Zr199       O208   2.388       .  S
Zr199       O209   2.404       .  S
Zr199       O210   2.385       .  S
O200        H256   0.990       .  S
O200        H264   0.988       .  S
O201        C221   1.277       .  A
O202        C223   1.278       .  A
O203       Zr213   2.647       .  S
O203        C222   1.326       .  A
O204       Zr212   2.423       .  S
O204        C223   1.286       .  A
O205        C222   1.271       .  A
O206       Zr214   2.423       .  S
O206        C221   1.282       .  A
O207       Zr212   2.395       .  S
O207       Zr214   2.353       .  S
O208       Zr213   2.394       .  S
O208       Zr214   2.395       .  S
O208        H243   0.964       .  S
O209       Zr212   2.394       .  S
O209       Zr229   2.404       .  S
O209        H246   0.966       .  S
O210       Zr213   2.375       .  S
O210       Zr229   2.369       .  S
Zr211       O236   2.449       .  S
Zr211       O230   2.442       .  S
Zr211       O238   2.416       .  S
Zr211       O226   2.420       .  S
Zr211       O218   2.415       .  S
Zr211       O219   2.369       .  S
Zr211       O220   2.394       .  S
Zr211       O217   2.293       .  S
Zr212       O231   2.437       .  S
Zr212       O224   2.433       .  S
Zr212       O225   2.433       .  S
Zr212       O218   2.410       .  S
Zr212       O219   2.387       .  S
Zr213       O215   2.445       .  S
Zr213       O237   2.443       .  S
Zr213       O239   2.611       .  S
Zr213       O220   2.418       .  S
Zr213       O217   2.289       .  S
Zr214       O240   2.432       .  S
Zr214       O241   2.435       .  S
Zr214       O216   2.459       .  S
Zr214       O218   2.420       .  S
Zr214       O217   2.293       .  S
O215        H252   0.990       .  S
O216        H247   0.990       .  S
O216        H261   0.990       .  S
O218        H244   0.965       .  S
O219       Zr229   2.369       .  S
O220       Zr229   2.410       .  S
O220        H245   0.965       .  S
C221       C4440   1.465       .  S
C222       C4473   1.536       .  S
C223       C4420   1.467       .  S
O224        H260   0.990       .  S
O225        C227   1.282       .  A
O226        C227   1.277       .  A
C227       C4410   1.478       .  S
O228       Zr229   2.435       .  S
O228        H257   0.991       .  S
Zr229       O232   2.437       .  S
Zr229       O233   2.440       .  S
Zr229       O234   2.399       .  S
O230        C235   1.284       .  A
O231        H248   0.990       .  S
O231        H263   0.990       .  S
O232        H249   0.990       .  S
O233        H253   0.990       .  S
O233        H262   0.989       .  S
O234        C235   1.276       .  A
C235       C4430   1.469       .  S
O236        H255   0.990       .  S
O236        H259   0.990       .  S
O237        H251   0.991       .  S
O237        H258   0.990       .  S
O238        C242   1.277       .  A
O239        C242   1.319       .  A
O240        H250   0.989       .  S
O241        H254   0.990       .  S
C242       C4523   1.536       .  S
Zr265       O266   2.452       .  S
Zr265       O267   2.446       .  S
Zr265       O268   2.419       .  S
Zr265       O271   2.420       .  S
Zr265       O273   2.378       .  S
Zr265       O274   2.397       .  S
Zr265       O275   2.420       .  S
Zr265       O276   2.299       .  S
O266        H322   0.990       .  S
O266        H330   0.991       .  S
O267        C287   1.285       .  A
O268        C289   1.277       .  A
O269       Zr279   2.599       .  S
O269        C288   1.314       .  A
O270       Zr278   2.430       .  S
O270        C289   1.281       .  A
O271        C288   1.276       .  A
O272       Zr280   2.381       .  S
O272        C287   1.273       .  A
O273       Zr278   2.391       .  S
O273       Zr280   2.366       .  S
O274       Zr279   2.419       .  S
O274       Zr280   2.412       .  S
O274        H309   0.965       .  S
O275       Zr278   2.410       .  S
O275       Zr295   2.426       .  S
O275        H312   0.965       .  S
O276       Zr279   2.288       .  S
O276       Zr295   2.306       .  S
Zr277       O302   2.445       .  S
Zr277       O296   2.397       .  S
Zr277       O304   2.406       .  S
Zr277       O292   2.416       .  S
Zr277       O283   2.370       .  S
Zr277       O284   2.409       .  S
Zr277       O285   2.393       .  S
Zr277       O286   2.414       .  S
Zr278       O297   2.438       .  S
Zr278       O290   2.436       .  S
Zr278       O291   2.427       .  S
Zr278       O284   2.403       .  S
Zr278       O285   2.393       .  S
Zr279       O281   2.443       .  S
Zr279       O303   2.446       .  S
Zr279       O305   2.657       .  S
Zr279       O283   2.358       .  S
Zr279       O286   2.388       .  S
Zr280       O306   2.436       .  S
Zr280       O307   2.430       .  S
Zr280       O282   2.437       .  S
Zr280       O283   2.350       .  S
Zr280       O284   2.399       .  S
O281        H318   0.990       .  S
O282        H313   0.990       .  S
O282        H327   0.990       .  S
O284        H310   0.966       .  S
O285       Zr295   2.381       .  S
O286       Zr295   2.422       .  S
O286        H311   0.968       .  S
C287       C4390   1.462       .  S
C288       C4380   1.531       .  S
C289       C4350   1.476       .  S
O290        H326   0.990       .  S
O291        C293   1.284       .  A
O292        C293   1.279       .  A
C293       C4363   1.476       .  S
O294       Zr295   2.437       .  S
O294        H323   0.990       .  S
Zr295       O298   2.455       .  S
Zr295       O299   2.444       .  S
Zr295       O300   2.426       .  S
O296        C301   1.262       .  A
O297        H314   0.990       .  S
O297        H329   0.989       .  S
O298        H315   0.990       .  S
O299        H319   0.990       .  S
O299        H328   0.990       .  S
O300        C301   1.273       .  A
C301       C4400   1.450       .  S
O302        H321   0.988       .  S
O302        H325   0.991       .  S
O303        H317   0.990       .  S
O303        H324   0.990       .  S
O304        C308   1.277       .  A
O305        C308   1.330       .  A
O306        H316   0.990       .  S
O307        H320   0.990       .  S
C308       C4373   1.533       .  S
Zr331       O332   2.440       .  S
Zr331       O333   2.455       .  S
Zr331       O334   2.418       .  S
Zr331       O337   2.412       .  S
Zr331       O339   2.379       .  S
Zr331       O340   2.394       .  S
Zr331       O341   2.432       .  S
Zr331       O342   2.377       .  S
O332        H388   0.989       .  S
O332        H396   0.990       .  S
O333        C353   1.288       .  A
O334        C355   1.272       .  A
O335       Zr345   2.615       .  S
O335        C354   1.321       .  A
O336       Zr344   2.464       .  S
O336        C355   1.286       .  A
O337        C354   1.281       .  A
O338       Zr346   2.396       .  S
O338        C353   1.277       .  A
O339       Zr344   2.401       .  S
O339       Zr346   2.339       .  S
O340       Zr345   2.401       .  S
O340       Zr346   2.421       .  S
O340        H375   0.965       .  S
O341       Zr344   2.412       .  S
O341       Zr361   2.420       .  S
O341        H378   0.965       .  S
O342       Zr345   2.364       .  S
O342       Zr361   2.367       .  S
Zr343       O368   2.442       .  S
Zr343       O362   2.399       .  S
Zr343       O370   2.412       .  S
Zr343       O358   2.380       .  S
Zr343       O349   2.372       .  S
Zr343       O350   2.409       .  S
Zr343       O351   2.373       .  S
Zr343       O352   2.388       .  S
Zr344       O363   2.435       .  S
Zr344       O356   2.436       .  S
Zr344       O357   2.469       .  S
Zr344       O350   2.402       .  S
Zr344       O351   2.390       .  S
Zr345       O347   2.435       .  S
Zr345       O369   2.434       .  S
Zr345       O371   2.588       .  S
Zr345       O349   2.384       .  S
Zr345       O352   2.400       .  S
Zr346       O372   2.434       .  S
Zr346       O373   2.440       .  S
Zr346       O348   2.443       .  S
Zr346       O349   2.358       .  S
Zr346       O350   2.418       .  S
O347        H384   0.990       .  S
O348        H379   0.990       .  S
O348        H393   0.990       .  S
O350        H376   0.965       .  S
O351       Zr361   2.368       .  S
O352       Zr361   2.390       .  S
O352        H377   0.965       .  S
C353       C4330   1.477       .  S
C354       C4370   1.540       .  S
C355       C4300   1.482       .  S
O356        H392   0.990       .  S
O357        C359   1.291       .  A
O358        C359   1.274       .  A
C359       C4313   1.478       .  S
O360       Zr361   2.437       .  S
O360        H389   0.990       .  S
Zr361       O364   2.435       .  S
Zr361       O365   2.439       .  S
Zr361       O366   2.435       .  S
O362        C367   1.279       .  A
O363        H380   0.990       .  S
O363        H395   0.990       .  S
O364        H381   0.990       .  S
O365        H385   0.990       .  S
O365        H394   0.990       .  S
O366        C367   1.286       .  A
C367       C4340   1.474       .  S
O368        H387   0.991       .  S
O368        H391   0.990       .  S
O369        H383   0.990       .  S
O369        H390   0.990       .  S
O370        C374   1.273       .  A
O371        C374   1.313       .  A
O372        H382   0.990       .  S
O373        H386   0.990       .  S
C374       C4320   1.519       .  S
Zr397       O398   2.447       .  S
Zr397       O399   2.472       .  S
Zr397       O400   2.421       .  S
Zr397       O403   2.454       .  S
Zr397       O405   2.348       .  S
Zr397       O406   2.410       .  S
Zr397       O407   2.432       .  S
Zr397       O408   2.370       .  S
O398        H454   0.990       .  S
O398        H462   0.991       .  S
O399        C419   1.291       .  A
O400        C421   1.282       .  A
O401       Zr411   2.590       .  S
O401        C420   1.317       .  A
O402       Zr410   2.406       .  S
O402        C421   1.280       .  A
O403        C420   1.287       .  A
O404       Zr412   2.379       .  S
O404        C419   1.272       .  A
O405       Zr410   2.344       .  S
O405       Zr412   2.357       .  S
O406       Zr411   2.433       .  S
O406       Zr412   2.410       .  S
O406        H441   0.966       .  S
O407       Zr410   2.391       .  S
O407       Zr427   2.425       .  S
O407        H444   0.968       .  S
O408       Zr411   2.342       .  S
O408       Zr427   2.355       .  S
Zr409       O434   2.445       .  S
Zr409       O428   2.445       .  S
Zr409       O436   2.438       .  S
Zr409       O424   2.438       .  S
Zr409       O415   2.378       .  S
Zr409       O416   2.446       .  S
Zr409       O417   2.395       .  S
Zr409       O418   2.420       .  S
Zr410       O429   2.435       .  S
Zr410       O422   2.438       .  S
Zr410       O423   2.396       .  S
Zr410       O416   2.410       .  S
Zr410       O417   2.367       .  S
Zr411       O413   2.434       .  S
Zr411       O435   2.435       .  S
Zr411       O437   2.591       .  S
Zr411       O415   2.352       .  S
Zr411       O418   2.423       .  S
Zr412       O438   2.444       .  S
Zr412       O439   2.441       .  S
Zr412       O414   2.437       .  S
Zr412       O415   2.338       .  S
Zr412       O416   2.399       .  S
O413        H450   0.990       .  S
O414        H445   0.990       .  S
O414        H459   0.990       .  S
O416        H442   0.963       .  S
O417       Zr427   2.383       .  S
O418       Zr427   2.421       .  S
O418        H443   0.968       .  S
C419       C4290   1.466       .  S
C420       C4323   1.522       .  S
C421       C4260   1.468       .  S
O422        H458   0.990       .  S
O423        C425   1.271       .  A
O424        C425   1.277       .  A
C425       C4250   1.472       .  S
O426       Zr427   2.438       .  S
O426        H455   0.990       .  S
Zr427       O430   2.435       .  S
Zr427       O431   2.438       .  S
Zr427       O432   2.412       .  S
O428        C433   1.278       .  A
O429        H446   0.990       .  S
O429        H461   0.989       .  S
O430        H447   0.990       .  S
O431        H451   0.988       .  S
O431        H460   0.990       .  S
O432        C433   1.270       .  A
C433       C4280   1.478       .  S
O434        H453   0.989       .  S
O434        H457   0.989       .  S
O435        H449   0.990       .  S
O435        H456   0.990       .  S
O436        C440   1.285       .  A
O437        C440   1.318       .  A
O438        H448   0.989       .  S
O439        H452   0.990       .  S
C440       C4270   1.519       .  S
Zr463       O464   2.438       .  S
Zr463       O465   2.386       .  S
Zr463       O466   2.394       .  S
Zr463       O469   2.396       .  S
Zr463       O471   2.358       .  S
Zr463       O472   2.393       .  S
Zr463       O473   2.400       .  S
Zr463       O474   2.369       .  S
O464        H520   0.990       .  S
O464        H528   0.990       .  S
O465        C485   1.277       .  A
O466        C487   1.278       .  A
O467       Zr477   2.590       .  S
O467        C486   1.314       .  A
O468       Zr476   2.471       .  S
O468        C487   1.293       .  A
O469        C486   1.274       .  A
O470       Zr478   2.452       .  S
O470        C485   1.287       .  A
O471       Zr476   2.379       .  S
O471       Zr478   2.353       .  S
O472       Zr477   2.402       .  S
O472       Zr478   2.389       .  S
O472        H507   0.964       .  S
O473       Zr476   2.405       .  S
O473       Zr493   2.420       .  S
O473        H510   0.966       .  S
O474       Zr477   2.374       .  S
O474       Zr493   2.352       .  S
Zr475       O500   2.439       .  S
Zr475       O494   2.419       .  S
Zr475       O502   2.403       .  S
Zr475       O490   2.385       .  S
Zr475       O481   2.385       .  S
Zr475       O482   2.412       .  S
Zr475       O483   2.365       .  S
Zr475       O484   2.387       .  S
Zr476       O495   2.441       .  S
Zr476       O488   2.435       .  S
Zr476       O489   2.470       .  S
Zr476       O482   2.400       .  S
Zr476       O483   2.387       .  S
Zr477       O479   2.435       .  S
Zr477       O501   2.437       .  S
Zr477       O503   2.586       .  S
Zr477       O481   2.384       .  S
Zr477       O484   2.392       .  S
Zr478       O504   2.435       .  S
Zr478       O505   2.436       .  S
Zr478       O480   2.438       .  S
Zr478       O481   2.377       .  S
Zr478       O482   2.427       .  S
O479        H516   0.990       .  S
O480        H511   0.990       .  S
O480        H525   0.991       .  S
O482        H508   0.964       .  S
O483       Zr493   2.351       .  S
O484       Zr493   2.404       .  S
O484        H509   0.965       .  S
C485       C4240   1.464       .  S
C486       C4383   1.520       .  S
C487       C4210   1.478       .  S
O488        H524   0.990       .  S
O489        C491   1.292       .  A
O490        C491   1.276       .  A
C491       C4220   1.477       .  S
O492       Zr493   2.437       .  S
O492        H521   0.990       .  S
Zr493       O496   2.434       .  S
Zr493       O497   2.438       .  S
Zr493       O498   2.431       .  S
O494        C499   1.282       .  A
O495        H512   0.990       .  S
O495        H527   0.990       .  S
O496        H513   0.990       .  S
O497        H517   0.990       .  S
O497        H526   0.990       .  S
O498        C499   1.284       .  A
C499       C4230   1.469       .  S
O500        H519   0.990       .  S
O500        H523   0.990       .  S
O501        H515   0.990       .  S
O501        H522   0.990       .  S
O502        C506   1.275       .  A
O503        C506   1.314       .  A
O504        H514   0.990       .  S
O505        H518   0.990       .  S
C506       C4273   1.517       .  S
Zr529       O530   2.451       .  S
Zr529       O531   2.463       .  S
Zr529       O532   2.435       .  S
Zr529       O535   2.409       .  S
Zr529       O537   2.393       .  S
Zr529       O538   2.377       .  S
Zr529       O539   2.418       .  S
Zr529       O540   2.415       .  S
O530        H586   0.990       .  S
O530        H594   0.991       .  S
O531        C551   1.288       .  A
O532        C553   1.282       .  A
O533       Zr543   2.444       .  S
O533        C552   1.286       .  A
O534       Zr542   2.652       .  S
O534        C553   1.330       .  A
O535        C552   1.278       .  A
O536       Zr544   2.398       .  S
O536        C551   1.275       .  A
O537       Zr542   2.444       .  S
O537       Zr544   2.411       .  S
O538       Zr543   2.401       .  S
O538       Zr544   2.388       .  S
O538        H573   0.965       .  S
O539       Zr542   2.419       .  S
O539       Zr559   2.350       .  S
O539        H576   0.951       .  S
O540       Zr543   2.396       .  S
O540       Zr559   2.400       .  S
Zr541       O566   2.439       .  S
Zr541       O560   2.396       .  S
Zr541       O568   2.403       .  S
Zr541       O556   2.340       .  S
Zr541       O547   2.375       .  S
Zr541       O548   2.401       .  S
Zr541       O549   2.394       .  S
Zr541       O550   2.367       .  S
Zr542       O561   2.435   1_545  S
Zr542       O554   2.435   1_545  S
Zr542       O555   2.671       .  S
Zr542       O548   2.421       .  S
Zr542       O549   2.389       .  S
Zr543       O545   2.435       .  S
Zr543       O567   2.432       .  S
Zr543       O569   2.484       .  S
Zr543       O547   2.389       .  S
Zr543       O550   2.381       .  S
Zr544       O570   2.436       .  S
Zr544       O571   2.439       .  S
Zr544       O546   2.439       .  S
Zr544       O547   2.414       .  S
Zr544       O548   2.372       .  S
O545        H582   0.991       .  S
O546        H577   0.990       .  S
O546        H591   0.990       .  S
O548        H574   0.962       .  S
O549       Zr559   2.377       .  S
O550       Zr559   2.331       .  S
O550        H575   0.958       .  S
C551       C4190   1.487       .  S
C552       C4160   1.472       .  S
C553       C4170   1.561   1_545  S
O554        H590   0.990       .  S
O555        C557   1.335       .  A
O556        C557   1.268       .  A
C557       C4180   1.540       .  S
O558       Zr559   2.436       .  S
O558        H587   0.990       .  S
Zr559       O562   2.439       .  S
Zr559       O563   2.441       .  S
Zr559       O564   2.430       .  S
O560        C565   1.275       .  A
O561        H578   0.990       .  S
O561        H593   0.990       .  S
O562        H579   0.990   1_545  S
O563        H583   0.990       .  S
O563        H592   0.990       .  S
O564        C565   1.285       .  A
C565       C4200   1.444       .  S
O566        H585   0.990       .  S
O566        H589   0.990       .  S
O567        H581   0.990       .  S
O567        H588   0.990       .  S
O568        C572   1.279       .  A
O569        C572   1.294       .  A
O570        H580   0.990       .  S
O571        H584   0.990       .  S
C572       C4153   1.485       .  S
Zr595       O596   2.448   1_545  S
Zr595       O597   2.459       .  S
Zr595       O598   2.408       .  S
Zr595       O601   2.434   1_545  S
Zr595       O603   2.397       .  S
Zr595       O604   2.381       .  S
Zr595       O605   2.430   1_545  S
Zr595       O606   2.385   1_545  S
O596        H652   0.990   1_565  S
O596        H660   0.991       .  S
O597        C617   1.288       .  A
O598        C619   1.277       .  A
O599       Zr609   2.447       .  S
O599        C618   1.285       .  A
O600       Zr608   2.615       .  S
O600        C619   1.322       .  A
O601        C618   1.284       .  A
O602       Zr610   2.399       .  S
O602        C617   1.278       .  A
O603       Zr608   2.432       .  S
O603       Zr610   2.383       .  S
O604       Zr609   2.367   1_545  S
O604       Zr610   2.393       .  S
O604        H639   0.965       .  S
O605       Zr608   2.428   1_565  S
O605       Zr625   2.388       .  S
O605        H642   0.966       .  S
O606       Zr609   2.398       .  S
O606       Zr625   2.386       .  S
Zr607       O632   2.441       .  S
Zr607       O626   2.438   1_545  S
Zr607       O634   2.426   1_545  S
Zr607       O622   2.358       .  S
Zr607       O613   2.394       .  S
Zr607       O614   2.428       .  S
Zr607       O615   2.409   1_545  S
Zr607       O616   2.400   1_545  S
Zr608       O627   2.437   1_545  S
Zr608       O620   2.434       .  S
Zr608       O621   2.661       .  S
Zr608       O614   2.408       .  S
Zr608       O615   2.382   1_545  S
Zr609       O611   2.429       .  S
Zr609       O633   2.435   1_565  S
Zr609       O635   2.447       .  S
Zr609       O613   2.402   1_565  S
Zr609       O616   2.377       .  S
Zr610       O636   2.433       .  S
Zr610       O637   2.440       .  S
Zr610       O612   2.443       .  S
Zr610       O613   2.411       .  S
Zr610       O614   2.365       .  S
O611        H648   0.990       .  S
O612        H643   0.990       .  S
O612        H657   0.990       .  S
O614        H640   0.967       .  S
O615       Zr625   2.373       .  S
O616       Zr625   2.363       .  S
O616        H641   0.958       .  S
C617       C4140   1.481       .  S
C618       C4120   1.476       .  S
C619       C4183   1.546       .  S
O620        H656   0.990       .  S
O621        C623   1.329       .  A
O622        C623   1.263       .  A
C623       C4130   1.554       .  S
O624       Zr625   2.435       .  S
O624        H653   0.990       .  S
Zr625       O628   2.436       .  S
Zr625       O629   2.437       .  S
Zr625       O630   2.421       .  S
O626        C631   1.278       .  A
O627        H644   0.990       .  S
O627        H659   0.990   1_565  S
O628        H645   0.990       .  S
O629        H649   0.989       .  S
O629        H658   0.990       .  S
O630        C631   1.271       .  A
C631       C4310   1.464       .  S
O632        H651   0.991       .  S
O632        H655   0.990       .  S
O633        H647   0.990       .  S
O633        H654   0.990       .  S
O634        C638   1.279       .  A
O635        C638   1.282       .  A
O636        H646   0.990       .  S
O637        H650   0.990       .  S
C638       C4293   1.478       .  S
Zr661       O662   2.438       .  S
Zr661       O663   2.427       .  S
Zr661       O664   2.368       .  S
Zr661       O667   2.411       .  S
Zr661       O669   2.411       .  S
Zr661       O670   2.413       .  S
Zr661       O671   2.432       .  S
Zr661       O672   2.399       .  S
O662        H718   0.990       .  S
O662        H726   0.990       .  S
O663        C683   1.276       .  A
O664        C685   1.263       .  A
O665       Zr675   2.445       .  S
O665        C684   1.280       .  A
O666       Zr674   2.642       .  S
O666        C685   1.323       .  A
O667        C684   1.277       .  A
O668       Zr676   2.424       .  S
O668        C683   1.271       .  A
O669       Zr674   2.387       .  S
O669       Zr676   2.384       .  S
O670       Zr675   2.363       .  S
O670       Zr676   2.365       .  S
O670        H705   0.962       .  S
O671       Zr674   2.420       .  S
O671       Zr691   2.391       .  S
O671        H708   0.966       .  S
O672       Zr675   2.398       .  S
O672       Zr691   2.395       .  S
Zr673       O698   2.441       .  S
Zr673       O692   2.406       .  S
Zr673       O700   2.412       .  S
Zr673       O688   2.381       .  S
Zr673       O679   2.387       .  S
Zr673       O680   2.407       .  S
Zr673       O681   2.390       .  S
Zr673       O682   2.380       .  S
Zr674       O693   2.435       .  S
Zr674       O686   2.434   1_565  S
Zr674       O687   2.630       .  S
Zr674       O680   2.416       .  S
Zr674       O681   2.409       .  S
Zr675       O677   2.436       .  S
Zr675       O699   2.433       .  S
Zr675       O701   2.420       .  S
Zr675       O679   2.402       .  S
Zr675       O682   2.386       .  S
Zr676       O702   2.435       .  S
Zr676       O703   2.439       .  S
Zr676       O678   2.437       .  S
Zr676       O679   2.392       .  S
Zr676       O680   2.393       .  S
O677        H714   0.990       .  S
O678        H709   0.989       .  S
O678        H723   0.990       .  S
O680        H706   0.966       .  S
O681       Zr691   2.381       .  S
O682       Zr691   2.361       .  S
O682        H707   0.965       .  S
C683       C4110   1.453       .  S
C684       C4090   1.475       .  S
C685       C4100   1.552       .  S
O686        H722   0.990       .  S
O687        C689   1.326       .  A
O688        C689   1.276       .  A
C689       C4133   1.551       .  S
O690       Zr691   2.435       .  S
O690        H719   0.991       .  S
Zr691       O694   2.435       .  S
Zr691       O695   2.439       .  S
Zr691       O696   2.418       .  S
O692        C697   1.278       .  A
O693        H710   0.990       .  S
O693        H725   0.990       .  S
O694        H711   0.990       .  S
O695        H715   0.990       .  S
O695        H724   0.990       .  S
O696        C697   1.282       .  A
C697       C4263   1.467       .  S
O698        H717   0.990       .  S
O698        H721   0.990       .  S
O699        H713   0.990       .  S
O699        H720   0.990       .  S
O700        C704   1.281       .  A
O701        C704   1.280       .  A
O702        H712   0.990       .  S
O703        H716   0.990       .  S
C704       C4343   1.452       .  S
Zr727       O728   2.444   1_565  S
Zr727       O729   2.427       .  S
Zr727       O730   2.405       .  S
Zr727       O733   2.426       .  S
Zr727       O735   2.402       .  S
Zr727       O736   2.363       .  S
Zr727       O737   2.416   1_565  S
Zr727       O738   2.396   1_565  S
O728        H784   0.990   1_545  S
O728        H792   0.989       .  S
O729        C749   1.282       .  A
O730        C751   1.279       .  A
O731       Zr741   2.419       .  S
O731        C750   1.281       .  A
O732       Zr740   2.625       .  S
O732        C751   1.325       .  A
O733        C750   1.284   1_565  A
O734       Zr742   2.455       .  S
O734        C749   1.287       .  A
O735       Zr740   2.448       .  S
O735       Zr742   2.387       .  S
O736       Zr741   2.387   1_565  S
O736       Zr742   2.351       .  S
O736        H771   0.966       .  S
O737       Zr740   2.426   1_545  S
O737       Zr757   2.354       .  S
O737        H774   0.964       .  S
O738       Zr741   2.400       .  S
O738       Zr757   2.389       .  S
Zr739       O764   2.457       .  S
Zr739       O758   2.484       .  S
Zr739       O766   2.428       .  S
Zr739       O754   2.329   1_545  S
Zr739       O745   2.420   1_545  S
Zr739       O746   2.445   1_545  S
Zr739       O748   2.372   1_556  S
Zr739       O747   2.291   1_556  S
Zr740       O759   2.432       .  S
Zr740       O752   2.449       .  S
Zr740       O753   2.707   1_554  S
Zr740       O746   2.375   1_554  S
Zr740       O747   2.305   1_565  S
Zr741       O743   2.435       .  S
Zr741       O765   2.437   1_545  S
Zr741       O767   2.419   1_554  S
Zr741       O745   2.396   1_544  S
Zr741       O748   2.390       .  S
Zr742       O768   2.443       .  S
Zr742       O769   2.440   1_554  S
Zr742       O744   2.439       .  S
Zr742       O745   2.437   1_554  S
Zr742       O746   2.384   1_554  S
O743        H780   0.990       .  S
O744        H775   0.990       .  S
O744        H789   0.990       .  S
O746        H772   0.966       .  S
O747       Zr757   2.319       .  S
O748       Zr757   2.361       .  S
O748        H773   0.967       .  S
C749       C4080   1.496       .  S
C750       C4050   1.466       .  S
C751       C4103   1.540       .  S
O752        H788   0.991       .  S
O753        C755   1.341       .  A
O754        C755   1.261       .  A
C755       C4173   1.546       .  S
O756       Zr757   2.446       .  S
O756        H785   0.990       .  S
Zr757       O760   2.434       .  S
Zr757       O761   2.446       .  S
Zr757       O762   2.393       .  S
O758        C763   1.285       .  A
O759        H776   0.990       .  S
O759        H791   0.990   1_565  S
O760        H777   0.991       .  S
O761        H781   0.990       .  S
O761        H790   0.991       .  S
O762        C763   1.267   1_554  A
C763       C4070   1.473       .  S
O764        H783   0.990       .  S
O764        H787   0.991       .  S
O765        H779   0.990       .  S
O765        H786   0.990   1_554  S
O766        C770   1.280       .  A
O767        C770   1.282       .  A
O768        H778   0.990   1_554  S
O769        H782   0.990       .  S
C770       C4060   1.473       .  S
Zr793       O794   2.438       .  S
Zr793       O795   2.448   1_554  S
Zr793       O796   2.385   1_554  S
Zr793       O799   2.401       .  S
Zr793       O801   2.386   1_554  S
Zr793       O802   2.366   1_554  S
Zr793       O803   2.414       .  S
Zr793       O804   2.396       .  S
O794        H850   0.990       .  S
O794        H858   0.990       .  S
O795        C815   1.287       .  A
O796        C817   1.277       .  A
O797       Zr807   2.418       .  S
O797        C816   1.280       .  A
O798       Zr806   2.629       .  S
O798        C817   1.326       .  A
O799        C816   1.279       .  A
O800       Zr808   2.432       .  S
O800        C815   1.285       .  A
O801       Zr806   2.421       .  S
O801       Zr808   2.384       .  S
O802       Zr807   2.378   1_556  S
O802       Zr808   2.367       .  S
O802        H837   0.966       .  S
O803       Zr806   2.411   1_554  S
O803       Zr823   2.383       .  S
O803        H840   0.966       .  S
O804       Zr807   2.399       .  S
O804       Zr823   2.406       .  S
Zr805       O830   2.447   1_554  S
Zr805       O824   2.422       .  S
Zr805       O832   2.415       .  S
Zr805       O820   2.359   1_554  S
Zr805       O811   2.390   1_454  S
Zr805       O812   2.422   1_454  S
Zr805       O813   2.403   1_455  S
Zr805       O814   2.386   1_455  S
Zr806       O825   2.434   1_556  S
Zr806       O818   2.433       .  S
Zr806       O819   2.651   1_655  S
Zr806       O812   2.415       .  S
Zr806       O813   2.386   1_556  S
Zr807       O809   2.438       .  S
Zr807       O831   2.435   1_554  S
Zr807       O833   2.446   1_655  S
Zr807       O811   2.402   1_554  S
Zr807       O814   2.371       .  S
Zr808       O834   2.436       .  S
Zr808       O835   2.437   1_655  S
Zr808       O810   2.437       .  S
Zr808       O811   2.420       .  S
Zr808       O812   2.379       .  S
O809        H846   0.990       .  S
O810        H841   0.990       .  S
O810        H855   0.990       .  S
O812        H838   0.964   1_655  S
O813       Zr823   2.370       .  S
O814       Zr823   2.347       .  S
O814        H839   0.957   1_655  S
C815       C4563   1.493       .  S
C816       C4483   1.452       .  S
C817       C4030   1.548       .  S
O818        H854   0.990       .  S
O819        C821   1.327       .  A
O820        C821   1.264       .  A
C821       C4020   1.544       .  S
O822       Zr823   2.436       .  S
O822        H851   0.989       .  S
Zr823       O826   2.436       .  S
Zr823       O827   2.441       .  S
Zr823       O828   2.434   1_655  S
O824        C829   1.278       .  A
O825        H842   0.990       .  S
O825        H857   0.990       .  S
O826        H843   0.990       .  S
O827        H847   0.990       .  S
O827        H856   0.990       .  S
O828        C829   1.278       .  A
C829       C4040   1.454       .  S
O830        H849   0.990       .  S
O830        H853   0.990       .  S
O831        H845   0.990       .  S
O831        H852   0.990       .  S
O832        C836   1.282       .  A
O833        C836   1.287       .  A
O834        H844   0.990       .  S
O835        H848   0.990       .  S
C836       C4010   1.475       .  S
Zr859       O860   2.441       .  S
Zr859       O861   2.428       .  S
Zr859       O862   2.366       .  S
Zr859       O865   2.420       .  S
Zr859       O867   2.410       .  S
Zr859       O868   2.395       .  S
Zr859       O869   2.426       .  S
Zr859       O870   2.390       .  S
O860        H916   0.991       .  S
O860        H924   0.990       .  S
O861        C881   1.277       .  A
O862        C883   1.263       .  A
O863       Zr873   2.446       .  S
O863        C882   1.283       .  A
O864       Zr872   2.648       .  S
O864        C883   1.326       .  A
O865        C882   1.281       .  A
O866       Zr874   2.428       .  S
O866        C881   1.275       .  A
O867       Zr872   2.383       .  S
O867       Zr874   2.376       .  S
O868       Zr873   2.366       .  S
O868       Zr874   2.357       .  S
O868        H903   0.963       .  S
O869       Zr872   2.420       .  S
O869       Zr889   2.382       .  S
O869        H906   0.964       .  S
O870       Zr873   2.404       .  S
O870       Zr889   2.404       .  S
Zr871       O896   2.446       .  S
Zr871       O890   2.450       .  S
Zr871       O898   2.436       .  S
Zr871       O886   2.403       .  S
Zr871       O877   2.393       .  S
Zr871       O878   2.431       .  S
Zr871       O879   2.388       .  S
Zr871       O880   2.380       .  S
Zr872       O891   2.433       .  S
Zr872       O884   2.433   1_556  S
Zr872       O885   2.625       .  S
Zr872       O878   2.416       .  S
Zr872       O879   2.426       .  S
Zr873       O875   2.435       .  S
Zr873       O897   2.435       .  S
Zr873       O899   2.427       .  S
Zr873       O877   2.392       .  S
Zr873       O880   2.397       .  S
Zr874       O900   2.436       .  S
Zr874       O901   2.435       .  S
Zr874       O876   2.438       .  S
Zr874       O877   2.386       .  S
Zr874       O878   2.382       .  S
O875        H912   0.990       .  S
O876        H907   0.989       .  S
O876        H921   0.990       .  S
O878        H904   0.963       .  S
O879       Zr889   2.387       .  S
O880       Zr889   2.385       .  S
O880        H905   0.965       .  S
C881       C4463   1.456       .  S
C882       C4593   1.476       .  S
C883       C4033   1.546       .  S
O884        H920   0.990       .  S
O885        C887   1.324       .  A
O886        C887   1.278       .  A
C887       C3990   1.552       .  S
O888       Zr889   2.440       .  S
O888        H917   0.989       .  S
Zr889       O892   2.437       .  S
Zr889       O893   2.439       .  S
Zr889       O894   2.404       .  S
O890        C895   1.285       .  A
O891        H908   0.990       .  S
O891        H923   0.990   1_556  S
O892        H909   0.990       .  S
O893        H913   0.990       .  S
O893        H922   0.990       .  S
O894        C895   1.278       .  A
C895       C4000   1.483       .  S
O896        H915   0.991       .  S
O896        H919   0.991       .  S
O897        H911   0.990       .  S
O897        H918   0.989       .  S
O898        C902   1.283       .  A
O899        C902   1.282       .  A
O900        H910   0.990       .  S
O901        H914   0.990       .  S
C902       C3980   1.463       .  S
Zr925       O926   2.439   1_556  S
Zr925       O927   2.396       .  S
Zr925       O928   2.336   1_556  S
Zr925       O931   2.399       .  S
Zr925       O933   2.394       .  S
Zr925       O934   2.372       .  S
Zr925       O935   2.406   1_556  S
Zr925       O936   2.371   1_556  S
O926        H982   0.990   1_554  S
O926        H990   0.990       .  S
O927        C947   1.276       .  A
O928        C949   1.266       .  A
O929       Zr939   2.470       .  S
O929        C948   1.292       .  A
O930       Zr938   2.661       .  S
O930        C949   1.333       .  A
O931        C948   1.278       .  A
O932       Zr940   2.425       .  S
O932        C947   1.283       .  A
O933       Zr938   2.394   1_556  S
O933       Zr940   2.381       .  S
O934       Zr939   2.378       .  S
O934       Zr940   2.323       .  S
O934        H969   0.964       .  S
O935       Zr938   2.411       .  S
O935       Zr955   2.378       .  S
O935        H972   0.967       .  S
O936       Zr939   2.384   1_554  S
O936       Zr955   2.417       .  S
Zr937       O962   2.447       .  S
Zr937       O956   2.455       .  S
Zr937       O964   2.422       .  S
Zr937       O952   2.427       .  S
Zr937       O943   2.417   1_554  S
Zr937       O944   2.418   1_554  S
Zr937       O945   2.395       .  S
Zr937       O946   2.382       .  S
Zr938       O957   2.435       .  S
Zr938       O950   2.436       .  S
Zr938       O951   2.630       .  S
Zr938       O944   2.422   1_554  S
Zr938       O945   2.432       .  S
Zr939       O941   2.436   1_556  S
Zr939       O963   2.440       .  S
Zr939       O965   2.436       .  S
Zr939       O943   2.410       .  S
Zr939       O946   2.390   1_556  S
Zr940       O966   2.435       .  S
Zr940       O967   2.440       .  S
Zr940       O942   2.440       .  S
Zr940       O943   2.410       .  S
Zr940       O944   2.336       .  S
O941        H978   0.990       .  S
O942        H973   0.990       .  S
O942        H987   0.990       .  S
O944        H970   0.973       .  S
O945       Zr955   2.394       .  S
O946       Zr955   2.392       .  S
O946        H971   0.965       .  S
C947       C3960   1.447       .  S
C948       C3930   1.475       .  S
C949       C3993   1.533       .  S
O950        H986   0.990       .  S
O951        C953   1.325       .  A
O952        C953   1.282       .  A
C953       C3950   1.544       .  S
O954       Zr955   2.444       .  S
O954        H983   0.990       .  S
Zr955       O958   2.440       .  S
Zr955       O959   2.438       .  S
Zr955       O960   2.410       .  S
O956        C961   1.287       .  A
O957        H974   0.990       .  S
O957        H989   0.990       .  S
O958        H975   0.990       .  S
O959        H979   0.990       .  S
O959        H988   0.990       .  S
O960        C961   1.279       .  A
C961       C3970   1.483       .  S
O962        H981   0.990       .  S
O962        H985   0.991       .  S
O963        H977   0.990       .  S
O963        H984   0.990       .  S
O964        C968   1.280   1_554  A
O965        C968   1.283       .  A
O966        H976   0.990       .  S
O967        H980   0.990       .  S
C968       C3940   1.479       .  S
Zr991       O992   2.458       .  S
Zr991       O993   2.445       .  S
Zr991       O994   2.328       .  S
Zr991       O997   2.422       .  S
Zr991      O1000   2.379       .  S
Zr991      O1001   2.419       .  S
Zr991      O1002   2.409       .  S
Zr991       O999   2.303       .  S
O992       H1048   0.991       .  S
O992       H1056   0.991       .  S
O993       C1013   1.277       .  A
O994       C1015   1.264       .  A
O995      Zr1005   2.426       .  S
O995       C1014   1.281       .  A
O996      Zr1004   2.668       .  S
O996       C1015   1.333       .  A
O997       C1014   1.280       .  A
O998      Zr1006   2.390       .  S
O998       C1013   1.266       .  A
O999      Zr1004   2.318       .  S
O999      Zr1006   2.325       .  S
O1000     Zr1005   2.381       .  S
O1000     Zr1006   2.343       .  S
O1000      H1035   0.965       .  S
O1001     Zr1004   2.401       .  S
O1001     Zr1021   2.375       .  S
O1001      H1038   0.962       .  S
O1002     Zr1005   2.392       .  S
O1002     Zr1021   2.420       .  S
Zr1003     O1028   2.445       .  S
Zr1003     O1022   2.419       .  S
Zr1003     O1030   2.443       .  S
Zr1003     O1018   2.404       .  S
Zr1003     O1009   2.402       .  S
Zr1003     O1010   2.413       .  S
Zr1003     O1011   2.398       .  S
Zr1003     O1012   2.379       .  S
Zr1004     O1023   2.448       .  S
Zr1004     O1016   2.430   1_554  S
Zr1004     O1017   2.631       .  S
Zr1004     O1010   2.416       .  S
Zr1004     O1011   2.438       .  S
Zr1005     O1007   2.433       .  S
Zr1005     O1029   2.443       .  S
Zr1005     O1031   2.401       .  S
Zr1005     O1009   2.415       .  S
Zr1005     O1012   2.384       .  S
Zr1006     O1032   2.446       .  S
Zr1006     O1033   2.445       .  S
Zr1006     O1008   2.436       .  S
Zr1006     O1009   2.392       .  S
Zr1006     O1010   2.352       .  S
O1007      H1044   0.990       .  S
O1008      H1039   0.990       .  S
O1008      H1053   0.989       .  S
O1010      H1036   0.972       .  S
O1011     Zr1021   2.396       .  S
O1012     Zr1021   2.369       .  S
O1012      H1037   0.966       .  S
C1013      C3920   1.462       .  S
C1014      C3900   1.472       .  S
C1015      C3953   1.530       .  S
O1016      H1052   0.990       .  S
O1017      C1019   1.326       .  A
O1018      C1019   1.279       .  A
C1019      C4023   1.544       .  S
O1020     Zr1021   2.437       .  S
O1020      H1049   0.990       .  S
Zr1021     O1024   2.435       .  S
Zr1021     O1025   2.439       .  S
Zr1021     O1026   2.422       .  S
O1022      C1027   1.279       .  A
O1023      H1040   0.990       .  S
O1023      H1055   0.990       .  S
O1024      H1041   0.990       .  S
O1025      H1045   0.990       .  S
O1025      H1054   0.990       .  S
O1026      C1027   1.280       .  A
C1027      C3910   1.475       .  S
O1028      H1047   0.990       .  S
O1028      H1051   0.991       .  S
O1029      H1043   0.990       .  S
O1029      H1050   0.990       .  S
O1030      C1034   1.285       .  A
O1031      C1034   1.277       .  A
O1032      H1042   0.990       .  S
O1033      H1046   0.990       .  S
C1034      C3890   1.465       .  S
Zr1057     O1058   2.443       .  S
Zr1057     O1059   2.413       .  S
Zr1057     O1060   2.410       .  S
Zr1057     O1063   2.427       .  S
Zr1057     O1065   2.369       .  S
Zr1057     O1066   2.396       .  S
Zr1057     O1067   2.423       .  S
Zr1057     O1068   2.345       .  S
O1058      H1114   0.991       .  S
O1058      H1122   0.990       .  S
O1059      C1079   1.280       .  A
O1060      C1081   1.275       .  A
O1061     Zr1071   2.630       .  S
O1061      C1080   1.325       .  A
O1062     Zr1070   2.446       .  S
O1062      C1081   1.283       .  A
O1063      C1080   1.283       .  A
O1064     Zr1072   2.403       .  S
O1064      C1079   1.277       .  A
O1065     Zr1070   2.389       .  S
O1065     Zr1072   2.349       .  S
O1066     Zr1071   2.417       .  S
O1066     Zr1072   2.416       .  S
O1066      H1101   0.965       .  S
O1067     Zr1070   2.396       .  S
O1067     Zr1087   2.429   1_565  S
O1067      H1104   0.966       .  S
O1068     Zr1071   2.330       .  S
O1068     Zr1087   2.352   1_565  S
Zr1069     O1094   2.445       .  S
Zr1069     O1088   2.381       .  S
Zr1069     O1096   2.402       .  S
Zr1069     O1084   2.433       .  S
Zr1069     O1075   2.376   1_545  S
Zr1069     O1076   2.403   1_545  S
Zr1069     O1077   2.381       .  S
Zr1069     O1078   2.403       .  S
Zr1070     O1089   2.436   1_565  S
Zr1070     O1082   2.437       .  S
Zr1070     O1083   2.409   1_565  S
Zr1070     O1076   2.414       .  S
Zr1070     O1077   2.395   1_565  S
Zr1071     O1073   2.436   1_565  S
Zr1071     O1095   2.439       .  S
Zr1071     O1097   2.600       .  S
Zr1071     O1075   2.383       .  S
Zr1071     O1078   2.403   1_565  S
Zr1072     O1098   2.436       .  S
Zr1072     O1099   2.436       .  S
Zr1072     O1074   2.442       .  S
Zr1072     O1075   2.362       .  S
Zr1072     O1076   2.403       .  S
O1073      H1110   0.990       .  S
O1074      H1105   0.990       .  S
O1074      H1119   0.990       .  S
O1076      H1102   0.966       .  S
O1077     Zr1087   2.366       .  S
O1078     Zr1087   2.408       .  S
O1078      H1103   0.965       .  S
C1079      C3903   1.460       .  S
C1080      C3860   1.537       .  S
C1081      C3973   1.476       .  S
O1082      H1118   0.990       .  S
O1083      C1085   1.281       .  A
O1084      C1085   1.282       .  A
C1085      C3850   1.475       .  S
O1086     Zr1087   2.432       .  S
O1086      H1115   0.990       .  S
Zr1087     O1090   2.438       .  S
Zr1087     O1091   2.438       .  S
Zr1087     O1092   2.404       .  S
O1088      C1093   1.266       .  A
O1089      H1106   0.990       .  S
O1089      H1121   0.990   1_545  S
O1090      H1107   0.989       .  S
O1091      H1111   0.990       .  S
O1091      H1120   0.989       .  S
O1092      C1093   1.278       .  A
C1093      C3880   1.444       .  S
O1094      H1113   0.990       .  S
O1094      H1117   0.990       .  S
O1095      H1109   0.990       .  S
O1095      H1116   0.990       .  S
O1096      C1100   1.271   1_545  A
O1097      C1100   1.316       .  A
O1098      H1108   0.990       .  S
O1099      H1112   0.991       .  S
C1100      C3870   1.519       .  S
Zr1123     O1124   2.442   1_556  S
Zr1123     O1125   2.467       .  S
Zr1123     O1126   2.407       .  S
Zr1123     O1129   2.395       .  S
Zr1123     O1131   2.371       .  S
Zr1123     O1132   2.399       .  S
Zr1123     O1133   2.422       .  S
Zr1123     O1134   2.392       .  S
O1124      H1180   0.989       .  S
O1124      H1188   0.990       .  S
O1125      C1145   1.289       .  A
O1126      C1147   1.271       .  A
O1127     Zr1137   2.607   1_545  S
O1127      C1146   1.314   1_545  A
O1128     Zr1136   2.442       .  S
O1128      C1147   1.281       .  A
O1129      C1146   1.267       .  A
O1130     Zr1138   2.417       .  S
O1130      C1145   1.281       .  A
O1131     Zr1136   2.405       .  S
O1131     Zr1138   2.358       .  S
O1132     Zr1137   2.392       .  S
O1132     Zr1138   2.395       .  S
O1132      H1167   0.964       .  S
O1133     Zr1136   2.402       .  S
O1133     Zr1153   2.414       .  S
O1133      H1170   0.966       .  S
O1134     Zr1137   2.383       .  S
O1134     Zr1153   2.370       .  S
Zr1135     O1160   2.439       .  S
Zr1135     O1154   2.404       .  S
Zr1135     O1162   2.363       .  S
Zr1135     O1150   2.407       .  S
Zr1135     O1141   2.390       .  S
Zr1135     O1142   2.397       .  S
Zr1135     O1143   2.344       .  S
Zr1135     O1144   2.397       .  S
Zr1136     O1155   2.437       .  S
Zr1136     O1148   2.434       .  S
Zr1136     O1149   2.465       .  S
Zr1136     O1142   2.405       .  S
Zr1136     O1143   2.367       .  S
Zr1137     O1139   2.435   1_565  S
Zr1137     O1161   2.438   1_565  S
Zr1137     O1163   2.600   1_565  S
Zr1137     O1141   2.390       .  S
Zr1137     O1144   2.398       .  S
Zr1138     O1164   2.433       .  S
Zr1138     O1165   2.435       .  S
Zr1138     O1140   2.444       .  S
Zr1138     O1141   2.377       .  S
Zr1138     O1142   2.419       .  S
O1139      H1176   0.990       .  S
O1140      H1171   0.989       .  S
O1140      H1185   0.990       .  S
O1142      H1168   0.966       .  S
O1143     Zr1153   2.335       .  S
O1144     Zr1153   2.400       .  S
O1144      H1169   0.965   1_565  S
C1145      C3943   1.478       .  S
C1146      C3863   1.519   1_566  S
C1147      C3923   1.474       .  S
O1148      H1184   0.990       .  S
O1149      C1151   1.292       .  A
O1150      C1151   1.281       .  A
C1151      C3820   1.476       .  S
O1152     Zr1153   2.437       .  S
O1152      H1181   0.990       .  S
Zr1153     O1156   2.439       .  S
Zr1153     O1157   2.434   1_565  S
Zr1153     O1158   2.427       .  S
O1154      C1159   1.280   1_565  A
O1155      H1172   0.990       .  S
O1155      H1187   0.990       .  S
O1156      H1173   0.990       .  S
O1157      H1177   0.990       .  S
O1157      H1186   0.990       .  S
O1158      C1159   1.283   1_565  A
C1159      C3840   1.465       .  S
O1160      H1179   0.990       .  S
O1160      H1183   0.990       .  S
O1161      H1175   0.990       .  S
O1161      H1182   0.990       .  S
O1162      C1166   1.271       .  A
O1163      C1166   1.318   1_545  A
O1164      H1174   0.990       .  S
O1165      H1178   0.990       .  S
C1166      C3830   1.515   1_565  S
Zr1189     O1190   2.443       .  S
Zr1189     O1191   2.433       .  S
Zr1189     O1192   2.433   1_565  S
Zr1189     O1195   2.436       .  S
Zr1189     O1197   2.375       .  S
Zr1189     O1198   2.415       .  S
Zr1189     O1199   2.422   1_565  S
Zr1189     O1200   2.393   1_565  S
O1190      H1246   0.990       .  S
O1190      H1254   0.991       .  S
O1191      C1211   1.277       .  A
O1192      C1213   1.283       .  A
O1193     Zr1203   2.602       .  S
O1193      C1212   1.319       .  A
O1194     Zr1202   2.402       .  S
O1194      C1213   1.278       .  A
O1195      C1212   1.284   1_565  A
O1196     Zr1204   2.425       .  S
O1196      C1211   1.275       .  A
O1197     Zr1202   2.357   1_565  S
O1197     Zr1204   2.374       .  S
O1198     Zr1203   2.415   1_565  S
O1198     Zr1204   2.404       .  S
O1198      H1233   0.969       .  S
O1199     Zr1202   2.409       .  S
O1199     Zr1219   2.407       .  S
O1199      H1236   0.968       .  S
O1200     Zr1203   2.389       .  S
O1200     Zr1219   2.356       .  S
Zr1201     O1226   2.451       .  S
Zr1201     O1220   2.481       .  S
Zr1201     O1228   2.410       .  S
Zr1201     O1216   2.436       .  S
Zr1201     O1208   2.418       .  S
Zr1201     O1209   2.359       .  S
Zr1201     O1210   2.395       .  S
Zr1201     O1207   2.332       .  S
Zr1202     O1221   2.441       .  S
Zr1202     O1214   2.436       .  S
Zr1202     O1215   2.420       .  S
Zr1202     O1208   2.401       .  S
Zr1202     O1209   2.364       .  S
Zr1203     O1205   2.443       .  S
Zr1203     O1227   2.441   1_545  S
Zr1203     O1229   2.592       .  S
Zr1203     O1210   2.428       .  S
Zr1203     O1207   2.285       .  S
Zr1204     O1230   2.444       .  S
Zr1204     O1231   2.425       .  S
Zr1204     O1206   2.447       .  S
Zr1204     O1208   2.431   1_565  S
Zr1204     O1207   2.309   1_565  S
O1205      H1242   0.991       .  S
O1206      H1237   0.991       .  S
O1206      H1251   0.990       .  S
O1208      H1234   0.965       .  S
O1209     Zr1219   2.369       .  S
O1210     Zr1219   2.403       .  S
O1210      H1235   0.968       .  S
C1211      C3803   1.478       .  S
C1212      C3833   1.522       .  S
C1213      C3783   1.469       .  S
O1214      H1250   0.990       .  S
O1215      C1217   1.282       .  A
O1216      C1217   1.282       .  A
C1217      C3770   1.477       .  S
O1218     Zr1219   2.438       .  S
O1218      H1247   0.989       .  S
Zr1219     O1222   2.441       .  S
Zr1219     O1223   2.441       .  S
Zr1219     O1224   2.398       .  S
O1220      C1225   1.290       .  A
O1221      H1238   0.990       .  S
O1221      H1253   0.990       .  S
O1222      H1239   0.990       .  S
O1223      H1243   0.990       .  S
O1223      H1252   0.990       .  S
O1224      C1225   1.275       .  A
C1225      C3810   1.474       .  S
O1226      H1245   0.990       .  S
O1226      H1249   0.991       .  S
O1227      H1241   0.990       .  S
O1227      H1248   0.990       .  S
O1228      C1232   1.273       .  A
O1229      C1232   1.314       .  A
O1230      H1240   0.991       .  S
O1231      H1244   0.990       .  S
C1232      C3790   1.526       .  S
Zr1255     O1256   2.452       .  S
Zr1255     O1257   2.425       .  S
Zr1255     O1258   2.381       .  S
Zr1255     O1261   2.420       .  S
Zr1255     O1263   2.380       .  S
Zr1255     O1264   2.382       .  S
Zr1255     O1265   2.409       .  S
Zr1255     O1266   2.287       .  S
O1256      H1312   0.991       .  S
O1256      H1320   0.991       .  S
O1257      C1277   1.282       .  A
O1258      C1279   1.275       .  A
O1259     Zr1269   2.592   1_565  S
O1259      C1278   1.314   1_565  A
O1260     Zr1268   2.459       .  S
O1260      C1279   1.289       .  A
O1261      C1278   1.277       .  A
O1262     Zr1270   2.416       .  S
O1262      C1277   1.279       .  A
O1263     Zr1268   2.390       .  S
O1263     Zr1270   2.352       .  S
O1264     Zr1269   2.396       .  S
O1264     Zr1270   2.413       .  S
O1264      H1299   0.965       .  S
O1265     Zr1268   2.406       .  S
O1265     Zr1285   2.398       .  S
O1265      H1302   0.965       .  S
O1266     Zr1269   2.296       .  S
O1266     Zr1285   2.298       .  S
Zr1267     O1292   2.448       .  S
Zr1267     O1286   2.459       .  S
Zr1267     O1294   2.446       .  S
Zr1267     O1282   2.428       .  S
Zr1267     O1274   2.418       .  S
Zr1267     O1275   2.381       .  S
Zr1267     O1276   2.395       .  S
Zr1267     O1273   2.287       .  S
Zr1268     O1287   2.438       .  S
Zr1268     O1280   2.435       .  S
Zr1268     O1281   2.463       .  S
Zr1268     O1274   2.402       .  S
Zr1268     O1275   2.396       .  S
Zr1269     O1271   2.449   1_545  S
Zr1269     O1293   2.452   1_545  S
Zr1269     O1295   2.598   1_545  S
Zr1269     O1276   2.403       .  S
Zr1269     O1273   2.283       .  S
Zr1270     O1296   2.431       .  S
Zr1270     O1297   2.435       .  S
Zr1270     O1272   2.453       .  S
Zr1270     O1274   2.418       .  S
Zr1270     O1273   2.301       .  S
O1271      H1308   0.991       .  S
O1272      H1303   0.990       .  S
O1272      H1317   0.991       .  S
O1274      H1300   0.969       .  S
O1275     Zr1285   2.376       .  S
O1276     Zr1285   2.417       .  S
O1276      H1301   0.965       .  S
C1277      C3760   1.469       .  S
C1278      C3793   1.527       .  S
C1279      C3733   1.476       .  S
O1280      H1316   0.990       .  S
O1281      C1283   1.289       .  A
O1282      C1283   1.284       .  A
C1283      C3740   1.484       .  S
O1284     Zr1285   2.438       .  S
O1284      H1313   0.990       .  S
Zr1285     O1288   2.452       .  S
Zr1285     O1289   2.434       .  S
Zr1285     O1290   2.392       .  S
O1286      C1291   1.287       .  A
O1287      H1304   0.990       .  S
O1287      H1319   0.990       .  S
O1288      H1305   0.990       .  S
O1289      H1309   0.991       .  S
O1289      H1318   0.990       .  S
O1290      C1291   1.273       .  A
C1291      C3750   1.464       .  S
O1292      H1311   0.991       .  S
O1292      H1315   0.991       .  S
O1293      H1307   0.990       .  S
O1293      H1314   0.990       .  S
O1294      C1298   1.287       .  A
O1295      C1298   1.318   1_565  A
O1296      H1306   0.989       .  S
O1297      H1310   0.989       .  S
C1298      C3873   1.529   1_545  S
Zr1321     O1322   2.441       .  S
Zr1321     O1323   2.445       .  S
Zr1321     O1324   2.421       .  S
Zr1321     O1327   2.413       .  S
Zr1321     O1329   2.395       .  S
Zr1321     O1330   2.400       .  S
Zr1321     O1331   2.407   1_455  S
Zr1321     O1332   2.433       .  S
O1322      H1378   0.989   1_565  S
O1322      H1386   0.990   1_565  S
O1323      C1343   1.287       .  A
O1324      C1345   1.276   1_455  A
O1325     Zr1335   2.402       .  S
O1325      C1344   1.270       .  A
O1326     Zr1334   2.640       .  S
O1326      C1345   1.326       .  A
O1327      C1344   1.272       .  A
O1328     Zr1336   2.390       .  S
O1328      C1343   1.276       .  A
O1329     Zr1334   2.426   1_455  S
O1329     Zr1336   2.405       .  S
O1330     Zr1335   2.388       .  S
O1330     Zr1336   2.329       .  S
O1330      H1365   0.965       .  S
O1331     Zr1334   2.427       .  S
O1331     Zr1351   2.340       .  S
O1331      H1368   0.955       .  S
O1332     Zr1335   2.389       .  S
O1332     Zr1351   2.417   1_455  S
Zr1333     O1358   2.446       .  S
Zr1333     O1352   2.447       .  S
Zr1333     O1360   2.432   1_655  S
Zr1333     O1348   2.430       .  S
Zr1333     O1339   2.414   1_655  S
Zr1333     O1340   2.399       .  S
Zr1333     O1341   2.403       .  S
Zr1333     O1342   2.382       .  S
Zr1334     O1353   2.435       .  S
Zr1334     O1346   2.433       .  S
Zr1334     O1347   2.657       .  S
Zr1334     O1340   2.409       .  S
Zr1334     O1341   2.432       .  S
Zr1335     O1337   2.435       .  S
Zr1335     O1359   2.435       .  S
Zr1335     O1361   2.386       .  S
Zr1335     O1339   2.402       .  S
Zr1335     O1342   2.384   1_455  S
Zr1336     O1362   2.439       .  S
Zr1336     O1363   2.440       .  S
Zr1336     O1338   2.441       .  S
Zr1336     O1339   2.405       .  S
Zr1336     O1340   2.322   1_455  S
O1337      H1374   0.991       .  S
O1338      H1369   0.990       .  S
O1338      H1383   0.990       .  S
O1340      H1366   0.942       .  S
O1341     Zr1351   2.400       .  S
O1342     Zr1351   2.339       .  S
O1342      H1367   0.965       .  S
C1343      C3823   1.473       .  S
C1344      C3800   1.470       .  S
C1345      C3710   1.551       .  S
O1346      H1382   0.990       .  S
O1347      C1349   1.333       .  A
O1348      C1349   1.284       .  A
C1349      C3720   1.551       .  S
O1350     Zr1351   2.437       .  S
O1350      H1379   0.990       .  S
Zr1351     O1354   2.435       .  S
Zr1351     O1355   2.441       .  S
Zr1351     O1356   2.411       .  S
O1352      C1357   1.285       .  A
O1353      H1370   0.990       .  S
O1353      H1385   0.990       .  S
O1354      H1371   0.990       .  S
O1355      H1375   0.990       .  S
O1355      H1384   0.990       .  S
O1356      C1357   1.278       .  A
C1357      C4303   1.468       .  S
O1358      H1377   0.990       .  S
O1358      H1381   0.989       .  S
O1359      H1373   0.989       .  S
O1359      H1380   0.990       .  S
O1360      C1364   1.280       .  A
O1361      C1364   1.267       .  A
O1362      H1372   0.990       .  S
O1363      H1376   0.990       .  S
C1364      C4403   1.438       .  S
Zr1387     O1388   2.437       .  S
Zr1387     O1389   2.408       .  S
Zr1387     O1390   2.356       .  S
Zr1387     O1393   2.438       .  S
Zr1387     O1395   2.391       .  S
Zr1387     O1396   2.364       .  S
Zr1387     O1397   2.414       .  S
Zr1387     O1398   2.375       .  S
O1388      H1444   0.990       .  S
O1388      H1452   0.990       .  S
O1389      C1409   1.278       .  A
O1390      C1411   1.271       .  A
O1391     Zr1401   2.434       .  S
O1391      C1410   1.286       .  A
O1392     Zr1400   2.665       .  S
O1392      C1411   1.333       .  A
O1393      C1410   1.287       .  A
O1394     Zr1402   2.423       .  S
O1394      C1409   1.283       .  A
O1395     Zr1400   2.396       .  S
O1395     Zr1402   2.367       .  S
O1396     Zr1401   2.380       .  S
O1396     Zr1402   2.350       .  S
O1396      H1431   0.964       .  S
O1397     Zr1400   2.413       .  S
O1397     Zr1417   2.391       .  S
O1397      H1434   0.965   1_655  S
O1398     Zr1401   2.396       .  S
O1398     Zr1417   2.404       .  S
Zr1399     O1424   2.441       .  S
Zr1399     O1418   2.436       .  S
Zr1399     O1426   2.418       .  S
Zr1399     O1414   2.366       .  S
Zr1399     O1405   2.390       .  S
Zr1399     O1406   2.435       .  S
Zr1399     O1407   2.408       .  S
Zr1399     O1408   2.390       .  S
Zr1400     O1419   2.436   1_655  S
Zr1400     O1412   2.436       .  S
Zr1400     O1413   2.659       .  S
Zr1400     O1406   2.430       .  S
Zr1400     O1407   2.385       .  S
Zr1401     O1403   2.434       .  S
Zr1401     O1425   2.437       .  S
Zr1401     O1427   2.413       .  S
Zr1401     O1405   2.420       .  S
Zr1401     O1408   2.411       .  S
Zr1402     O1428   2.439       .  S
Zr1402     O1429   2.436       .  S
Zr1402     O1404   2.440       .  S
Zr1402     O1405   2.405       .  S
Zr1402     O1406   2.381       .  S
O1403      H1440   0.990       .  S
O1404      H1435   0.990       .  S
O1404      H1449   0.990       .  S
O1406      H1432   0.966       .  S
O1407     Zr1417   2.363       .  S
O1408     Zr1417   2.369       .  S
O1408      H1433   0.964       .  S
C1409      C4553   1.454       .  S
C1410      C4543   1.483       .  S
C1411      C3700   1.561       .  S
O1412      H1448   0.990       .  S
O1413      C1415   1.326       .  A
O1414      C1415   1.261       .  A
C1415      C3723   1.555       .  S
O1416     Zr1417   2.436   1_455  S
O1416      H1445   0.990       .  S
Zr1417     O1420   2.442   1_655  S
Zr1417     O1421   2.441       .  S
Zr1417     O1422   2.423       .  S
O1418      C1423   1.276       .  A
O1419      H1436   0.990       .  S
O1419      H1451   0.990       .  S
O1420      H1437   0.989       .  S
O1421      H1441   0.990       .  S
O1421      H1450   0.991       .  S
O1422      C1423   1.275       .  A
C1423      C4360   1.466       .  S
O1424      H1443   0.990       .  S
O1424      H1447   0.991       .  S
O1425      H1439   0.990       .  S
O1425      H1446   0.990       .  S
O1426      C1430   1.273       .  A
O1427      C1430   1.278       .  A
O1428      H1438   0.990       .  S
O1429      H1442   0.990       .  S
C1430      C4333   1.463       .  S
Zr1453     O1454   2.434       .  S
Zr1453     O1455   2.472       .  S
Zr1453     O1456   2.406       .  S
Zr1453     O1459   2.394       .  S
Zr1453     O1461   2.390       .  S
Zr1453     O1462   2.394       .  S
Zr1453     O1463   2.406       .  S
Zr1453     O1464   2.427       .  S
O1454      H1510   0.986       .  S
O1454      H1518   0.990       .  S
O1455      C1475   1.292       .  A
O1456      C1477   1.273       .  A
O1457     Zr1467   2.419       .  S
O1457      C1476   1.275       .  A
O1458     Zr1466   2.640   1_455  S
O1458      C1477   1.326   1_455  A
O1459      C1476   1.267       .  A
O1460     Zr1468   2.403       .  S
O1460      C1475   1.278       .  A
O1461     Zr1466   2.418       .  S
O1461     Zr1468   2.402       .  S
O1462     Zr1467   2.397       .  S
O1462     Zr1468   2.328       .  S
O1462      H1497   0.963       .  S
O1463     Zr1466   2.423       .  S
O1463     Zr1483   2.334       .  S
O1463      H1500   0.959       .  S
O1464     Zr1467   2.405       .  S
O1464     Zr1483   2.423       .  S
Zr1465     O1490   2.432       .  S
Zr1465     O1484   2.412   1_655  S
Zr1465     O1492   2.441       .  S
Zr1465     O1480   2.437       .  S
Zr1465     O1471   2.402       .  S
Zr1465     O1472   2.401       .  S
Zr1465     O1473   2.400   1_655  S
Zr1465     O1474   2.374       .  S
Zr1466     O1485   2.435   1_655  S
Zr1466     O1478   2.435       .  S
Zr1466     O1479   2.635   1_655  S
Zr1466     O1472   2.418       .  S
Zr1466     O1473   2.423   1_655  S
Zr1467     O1469   2.436       .  S
Zr1467     O1491   2.438       .  S
Zr1467     O1493   2.425       .  S
Zr1467     O1471   2.384       .  S
Zr1467     O1474   2.394       .  S
Zr1468     O1494   2.439       .  S
Zr1468     O1495   2.438       .  S
Zr1468     O1470   2.439       .  S
Zr1468     O1471   2.418       .  S
Zr1468     O1472   2.323       .  S
O1469      H1506   0.990       .  S
O1470      H1501   0.990       .  S
O1470      H1515   0.990       .  S
O1472      H1498   0.968       .  S
O1473     Zr1483   2.388   1_455  S
O1474     Zr1483   2.322       .  S
O1474      H1499   0.970       .  S
C1475      C4513   1.493       .  S
C1476      C4603   1.472       .  S
C1477      C3703   1.545   1_655  S
O1478      H1514   0.990       .  S
O1479      C1481   1.329       .  A
O1480      C1481   1.289   1_655  A
C1481      C3680   1.544   1_455  S
O1482     Zr1483   2.438   1_455  S
O1482      H1511   0.990   1_455  S
Zr1483     O1486   2.436   1_655  S
Zr1483     O1487   2.440       .  S
Zr1483     O1488   2.446   1_655  S
O1484      C1489   1.283       .  A
O1485      H1502   0.990       .  S
O1485      H1517   0.990       .  S
O1486      H1503   0.990       .  S
O1487      H1507   0.990   1_655  S
O1487      H1516   0.990       .  S
O1488      C1489   1.285       .  A
C1489      C3690   1.477       .  S
O1490      H1509   0.990       .  S
O1490      H1513   0.986       .  S
O1491      H1505   0.988       .  S
O1491      H1512   0.990       .  S
O1492      C1496   1.288       .  A
O1493      C1496   1.282       .  A
O1494      H1504   0.990       .  S
O1495      H1508   0.990       .  S
C1496      C3670   1.461       .  S
Zr1519     O1520   2.438       .  S
Zr1519     O1521   2.415       .  S
Zr1519     O1522   2.371       .  S
Zr1519     O1525   2.418       .  S
Zr1519     O1527   2.399       .  S
Zr1519     O1528   2.378       .  S
Zr1519     O1529   2.418       .  S
Zr1519     O1530   2.377       .  S
O1520      H1576   0.990       .  S
O1520      H1584   0.990       .  S
O1521      C1541   1.282       .  A
O1522      C1543   1.265       .  A
O1523     Zr1533   2.457       .  S
O1523      C1542   1.291       .  A
O1524     Zr1532   2.640       .  S
O1524      C1543   1.324   1_655  A
O1525      C1542   1.283       .  A
O1526     Zr1534   2.428       .  S
O1526      C1541   1.284       .  A
O1527     Zr1532   2.400   1_455  S
O1527     Zr1534   2.359       .  S
O1528     Zr1533   2.367       .  S
O1528     Zr1534   2.345       .  S
O1528      H1563   0.955       .  S
O1529     Zr1532   2.415   1_455  S
O1529     Zr1549   2.376       .  S
O1529      H1566   0.974       .  S
O1530     Zr1533   2.397       .  S
O1530     Zr1549   2.399       .  S
Zr1531     O1556   2.442       .  S
Zr1531     O1550   2.410       .  S
Zr1531     O1558   2.394       .  S
Zr1531     O1546   2.353       .  S
Zr1531     O1537   2.379       .  S
Zr1531     O1538   2.402       .  S
Zr1531     O1539   2.379       .  S
Zr1531     O1540   2.375       .  S
Zr1532     O1551   2.434       .  S
Zr1532     O1544   2.437       .  S
Zr1532     O1545   2.664       .  S
Zr1532     O1538   2.407   1_655  S
Zr1532     O1539   2.385   1_655  S
Zr1533     O1535   2.436       .  S
Zr1533     O1557   2.436       .  S
Zr1533     O1559   2.442       .  S
Zr1533     O1537   2.407       .  S
Zr1533     O1540   2.369       .  S
Zr1534     O1560   2.438       .  S
Zr1534     O1561   2.428       .  S
Zr1534     O1536   2.432       .  S
Zr1534     O1537   2.398       .  S
Zr1534     O1538   2.393       .  S
O1535      H1572   0.990       .  S
O1536      H1567   0.988       .  S
O1536      H1581   0.990   1_455  S
O1538      H1564   0.966       .  S
O1539     Zr1549   2.371       .  S
O1540     Zr1549   2.375       .  S
O1540      H1565   0.965       .  S
C1541      C3660   1.466       .  S
C1542      C3650   1.478       .  S
C1543      C3683   1.551       .  S
O1544      H1580   0.990       .  S
O1545      C1547   1.333       .  A
O1546      C1547   1.269   1_455  A
C1547      C3713   1.555       .  S
O1548     Zr1549   2.442       .  S
O1548      H1577   0.990       .  S
Zr1549     O1552   2.438       .  S
Zr1549     O1553   2.437       .  S
Zr1549     O1554   2.405       .  S
O1550      C1555   1.279       .  A
O1551      H1568   0.990       .  S
O1551      H1583   0.990       .  S
O1552      H1569   0.991       .  S
O1553      H1573   0.990       .  S
O1553      H1582   0.990       .  S
O1554      C1555   1.283       .  A
C1555      C3780   1.453       .  S
O1556      H1575   0.991       .  S
O1556      H1579   0.990       .  S
O1557      H1571   0.990       .  S
O1557      H1578   0.990       .  S
O1558      C1562   1.277       .  A
O1559      C1562   1.286       .  A
O1560      H1570   0.990       .  S
O1561      H1574   0.989       .  S
C1562      C3843   1.468       .  S
Zr1585     O1586   2.442       .  S
Zr1585     O1587   2.447       .  S
Zr1585     O1588   2.358       .  S
Zr1585     O1591   2.400       .  S
Zr1585     O1593   2.400       .  S
Zr1585     O1594   2.381       .  S
Zr1585     O1595   2.431       .  S
Zr1585     O1596   2.386       .  S
O1586      H1642   0.990   1_565  S
O1586      H1650   0.990       .  S
O1587      C1607   1.284       .  A
O1588      C1609   1.258       .  A
O1589     Zr1599   2.440       .  S
O1589      C1608   1.287       .  A
O1590     Zr1598   2.659       .  S
O1590      C1609   1.325       .  A
O1591      C1608   1.279       .  A
O1592     Zr1600   2.413       .  S
O1592      C1607   1.275       .  A
O1593     Zr1598   2.397       .  S
O1593     Zr1600   2.368       .  S
O1594     Zr1599   2.367       .  S
O1594     Zr1600   2.375       .  S
O1594      H1629   0.964       .  S
O1595     Zr1598   2.412       .  S
O1595     Zr1615   2.385       .  S
O1595      H1632   0.966       .  S
O1596     Zr1599   2.393       .  S
O1596     Zr1615   2.408       .  S
Zr1597     O1622   2.438       .  S
Zr1597     O1616   2.405       .  S
Zr1597     O1624   2.417       .  S
Zr1597     O1612   2.360       .  S
Zr1597     O1603   2.379       .  S
Zr1597     O1604   2.408       .  S
Zr1597     O1605   2.396       .  S
Zr1597     O1606   2.369       .  S
Zr1598     O1617   2.434       .  S
Zr1598     O1610   2.437       .  S
Zr1598     O1611   2.641       .  S
Zr1598     O1604   2.416       .  S
Zr1598     O1605   2.413       .  S
Zr1599     O1601   2.434       .  S
Zr1599     O1623   2.435       .  S
Zr1599     O1625   2.430       .  S
Zr1599     O1603   2.401       .  S
Zr1599     O1606   2.377       .  S
Zr1600     O1626   2.439       .  S
Zr1600     O1627   2.434       .  S
Zr1600     O1602   2.443       .  S
Zr1600     O1603   2.394       .  S
Zr1600     O1604   2.373       .  S
O1601      H1638   0.990       .  S
O1602      H1633   0.989       .  S
O1602      H1647   0.990       .  S
O1604      H1630   0.968       .  S
O1605     Zr1615   2.372       .  S
O1606     Zr1615   2.361       .  S
O1606      H1631   0.971       .  S
C1607      C3853   1.463   1_565  S
C1608      C3753   1.466   1_565  S
C1609      C3630   1.556   1_565  S
O1610      H1646   0.990       .  S
O1611      C1613   1.329       .  A
O1612      C1613   1.272       .  A
C1613      C3640   1.544       .  S
O1614     Zr1615   2.438       .  S
O1614      H1643   0.990       .  S
Zr1615     O1618   2.437       .  S
Zr1615     O1619   2.438       .  S
Zr1615     O1620   2.424       .  S
O1616      C1621   1.277       .  A
O1617      H1634   0.990       .  S
O1617      H1649   0.990       .  S
O1618      H1635   0.991       .  S
O1619      H1639   0.989       .  S
O1619      H1648   0.990       .  S
O1620      C1621   1.283       .  A
C1621      C4253   1.458       .  S
O1622      H1641   0.990       .  S
O1622      H1645   0.990       .  S
O1623      H1637   0.990       .  S
O1623      H1644   0.990       .  S
O1624      C1628   1.281       .  A
O1625      C1628   1.285       .  A
O1626      H1636   0.990       .  S
O1627      H1640   0.990       .  S
C1628      C4233   1.466       .  S
Zr1651     O1652   2.443       .  S
Zr1651     O1653   2.459       .  S
Zr1651     O1654   2.394       .  S
Zr1651     O1657   2.411       .  S
Zr1651     O1659   2.387       .  S
Zr1651     O1660   2.395       .  S
Zr1651     O1661   2.420       .  S
Zr1651     O1662   2.434       .  S
O1652      H1708   0.991       .  S
O1652      H1716   0.989       .  S
O1653      C1673   1.288       .  A
O1654      C1675   1.273       .  A
O1655     Zr1665   2.408       .  S
O1655      C1674   1.270       .  A
O1656     Zr1664   2.643       .  S
O1656      C1675   1.327       .  A
O1657      C1674   1.272       .  A
O1658     Zr1666   2.379       .  S
O1658      C1673   1.274       .  A
O1659     Zr1664   2.412       .  S
O1659     Zr1666   2.407       .  S
O1660     Zr1665   2.393       .  S
O1660     Zr1666   2.335       .  S
O1660      H1695   0.964       .  S
O1661     Zr1664   2.424       .  S
O1661     Zr1681   2.363       .  S
O1661      H1698   0.951       .  S
O1662     Zr1665   2.392       .  S
O1662     Zr1681   2.428       .  S
Zr1663     O1688   2.433       .  S
Zr1663     O1682   2.404       .  S
Zr1663     O1690   2.454       .  S
Zr1663     O1678   2.429       .  S
Zr1663     O1669   2.397       .  S
Zr1663     O1670   2.385       .  S
Zr1663     O1671   2.403       .  S
Zr1663     O1672   2.370       .  S
Zr1664     O1683   2.436       .  S
Zr1664     O1676   2.433       .  S
Zr1664     O1677   2.639       .  S
Zr1664     O1670   2.415       .  S
Zr1664     O1671   2.428       .  S
Zr1665     O1667   2.433       .  S
Zr1665     O1689   2.436       .  S
Zr1665     O1691   2.396       .  S
Zr1665     O1669   2.394       .  S
Zr1665     O1672   2.390       .  S
Zr1666     O1692   2.442       .  S
Zr1666     O1693   2.439       .  S
Zr1666     O1668   2.451       .  S
Zr1666     O1669   2.411       .  S
Zr1666     O1670   2.319       .  S
O1667      H1704   0.991       .  S
O1668      H1699   0.990       .  S
O1668      H1713   0.989       .  S
O1670      H1696   0.955       .  S
O1671     Zr1681   2.395       .  S
O1672     Zr1681   2.334       .  S
O1672      H1697   0.961       .  S
C1673      C4223   1.470       .  S
C1674      C4283   1.471       .  S
C1675      C3643   1.538       .  S
O1676      H1712   0.990       .  S
O1677      C1679   1.329       .  A
O1678      C1679   1.285       .  A
C1679      C3620   1.543       .  S
O1680     Zr1681   2.438       .  S
O1680      H1709   0.990       .  S
Zr1681     O1684   2.435       .  S
Zr1681     O1685   2.442       .  S
Zr1681     O1686   2.469       .  S
O1682      C1687   1.281       .  A
O1683      H1700   0.989       .  S
O1683      H1715   0.990       .  S
O1684      H1701   0.990       .  S
O1685      H1705   0.991       .  S
O1685      H1714   0.990       .  S
O1686      C1687   1.288       .  A
C1687      C4453   1.495       .  S
O1688      H1707   0.989       .  S
O1688      H1711   0.990       .  S
O1689      H1703   0.990       .  S
O1689      H1710   0.990       .  S
O1690      C1694   1.290       .  A
O1691      C1694   1.278       .  A
O1692      H1702   0.990       .  S
O1693      H1706   0.990       .  S
C1694      C4443   1.461       .  S
Zr1717     O1718   2.440       .  S
Zr1717     O1719   2.433       .  S
Zr1717     O1720   2.381       .  S
Zr1717     O1723   2.406       .  S
Zr1717     O1725   2.398       .  S
Zr1717     O1726   2.389       .  S
Zr1717     O1727   2.418       .  S
Zr1717     O1728   2.393       .  S
O1718      H1774   0.989       .  S
O1718      H1782   0.990       .  S
O1719      C1739   1.280       .  A
O1720      C1741   1.266       .  A
O1721     Zr1731   2.453       .  S
O1721      C1740   1.290       .  A
O1722     Zr1730   2.651       .  S
O1722      C1741   1.324       .  A
O1723      C1740   1.282       .  A
O1724     Zr1732   2.418       .  S
O1724      C1739   1.275       .  A
O1725     Zr1730   2.398       .  S
O1725     Zr1732   2.372       .  S
O1726     Zr1731   2.366       .  S
O1726     Zr1732   2.359       .  S
O1726      H1761   0.965       .  S
O1727     Zr1730   2.422       .  S
O1727     Zr1747   2.387       .  S
O1727      H1764   0.967       .  S
O1728     Zr1731   2.397       .  S
O1728     Zr1747   2.410       .  S
Zr1729     O1754   2.442       .  S
Zr1729     O1748   2.407       .  S
Zr1729     O1756   2.421       .  S
Zr1729     O1744   2.354       .  S
Zr1729     O1735   2.375       .  S
Zr1729     O1736   2.409       .  S
Zr1729     O1737   2.388       .  S
Zr1729     O1738   2.377       .  S
Zr1730     O1749   2.436       .  S
Zr1730     O1742   2.434       .  S
Zr1730     O1743   2.654       .  S
Zr1730     O1736   2.417       .  S
Zr1730     O1737   2.404       .  S
Zr1731     O1733   2.433       .  S
Zr1731     O1755   2.440       .  S
Zr1731     O1757   2.443       .  S
Zr1731     O1735   2.399       .  S
Zr1731     O1738   2.368       .  S
Zr1732     O1758   2.435       .  S
Zr1732     O1759   2.435       .  S
Zr1732     O1734   2.434       .  S
Zr1732     O1735   2.384       .  S
Zr1732     O1736   2.394       .  S
O1733      H1770   0.990       .  S
O1734      H1765   0.990       .  S
O1734      H1779   0.990       .  S
O1736      H1762   0.967       .  S
O1737     Zr1747   2.364       .  S
O1738     Zr1747   2.377       .  S
O1738      H1763   0.966       .  S
C1739      C4423   1.458       .  S
C1740      C4493   1.473       .  S
C1741      C3623   1.564       .  S
O1742      H1778   0.990       .  S
O1743      C1745   1.331       .  A
O1744      C1745   1.270       .  A
C1745      C3603   1.550       .  S
O1746     Zr1747   2.437       .  S
O1746      H1775   0.990       .  S
Zr1747     O1750   2.435       .  S
Zr1747     O1751   2.442       .  S
Zr1747     O1752   2.429       .  S
O1748      C1753   1.279       .  A
O1749      H1766   0.990       .  S
O1749      H1781   0.990       .  S
O1750      H1767   0.990       .  S
O1751      H1771   0.990       .  S
O1751      H1780   0.990       .  S
O1752      C1753   1.285       .  A
C1753      C3610   1.467       .  S
O1754      H1773   0.990       .  S
O1754      H1777   0.990       .  S
O1755      H1769   0.990       .  S
O1755      H1776   0.990       .  S
O1756      C1760   1.282       .  A
O1757      C1760   1.287       .  A
O1758      H1768   0.990       .  S
O1759      H1772   0.989       .  S
C1760      C3590   1.482       .  S
Zr1783     O1784   2.447       .  S
Zr1783     O1785   2.443       .  S
Zr1783     O1786   2.435       .  S
Zr1783     O1789   2.437       .  S
Zr1783     O1791   2.396       .  S
Zr1783     O1792   2.373       .  S
Zr1783     O1793   2.408       .  S
Zr1783     O1794   2.410       .  S
O1784      H1840   0.990       .  S
O1784      H1848   0.990       .  S
O1785      C1805   1.287       .  A
O1786      C1807   1.285       .  A
O1787     Zr1797   2.362       .  S
O1787      C1806   1.271       .  A
O1788     Zr1796   2.642       .  S
O1788      C1807   1.330       .  A
O1789      C1806   1.287       .  A
O1790     Zr1798   2.438       .  S
O1790      C1805   1.281       .  A
O1791     Zr1796   2.435       .  S
O1791     Zr1798   2.398       .  S
O1792     Zr1797   2.392       .  S
O1792     Zr1798   2.334       .  S
O1792      H1827   0.966       .  S
O1793     Zr1796   2.410       .  S
O1793     Zr1813   2.313       .  S
O1793      H1830   0.969       .  S
O1794     Zr1797   2.404       .  S
O1794     Zr1813   2.410       .  S
Zr1795     O1820   2.436       .  S
Zr1795     O1814   2.444       .  S
Zr1795     O1822   2.423       .  S
Zr1795     O1810   2.403       .  S
Zr1795     O1801   2.431       .  S
Zr1795     O1802   2.419       .  S
Zr1795     O1803   2.395       .  S
Zr1795     O1804   2.395       .  S
Zr1796     O1815   2.436       .  S
Zr1796     O1808   2.434       .  S
Zr1796     O1809   2.635       .  S
Zr1796     O1802   2.423       .  S
Zr1796     O1803   2.414       .  S
Zr1797     O1799   2.437       .  S
Zr1797     O1821   2.438       .  S
Zr1797     O1823   2.405       .  S
Zr1797     O1801   2.384       .  S
Zr1797     O1804   2.382       .  S
Zr1798     O1824   2.435       .  S
Zr1798     O1825   2.433       .  S
Zr1798     O1800   2.439       .  S
Zr1798     O1801   2.425       .  S
Zr1798     O1802   2.356       .  S
O1799      H1836   0.989       .  S
O1800      H1831   0.990       .  S
O1800      H1845   0.990       .  S
O1802      H1828   0.969       .  S
O1803     Zr1813   2.404       .  S
O1804     Zr1813   2.325       .  S
O1804      H1829   0.963       .  S
C1805      C3743   1.491       .  S
C1806      C3883   1.449       .  S
C1807      C3633   1.544       .  S
O1808      H1844   0.990       .  S
O1809      C1811   1.324       .  A
O1810      C1811   1.274       .  A
C1811      C3600   1.545       .  S
O1812     Zr1813   2.440       .  S
O1812      H1841   0.990       .  S
Zr1813     O1816   2.436       .  S
Zr1813     O1817   2.440       .  S
Zr1813     O1818   2.386       .  S
O1814      C1819   1.286       .  A
O1815      H1832   0.990       .  S
O1815      H1847   0.990       .  S
O1816      H1833   0.990       .  S
O1817      H1837   0.990       .  S
O1817      H1846   0.990       .  S
O1818      C1819   1.274       .  A
C1819      C3580   1.465       .  S
O1820      H1839   0.990       .  S
O1820      H1843   0.990       .  S
O1821      H1835   0.990       .  S
O1821      H1842   0.990       .  S
O1822      C1826   1.272       .  A
O1823      C1826   1.268       .  A
O1824      H1834   0.990       .  S
O1825      H1838   0.990       .  S
C1826      C3570   1.475       .  S
Zr1849     O1850   2.441       .  S
Zr1849     O1851   2.456       .  S
Zr1849     O1852   2.408       .  S
Zr1849     O1855   2.435       .  S
Zr1849     O1857   2.372       .  S
Zr1849     O1858   2.388       .  S
Zr1849     O1859   2.421       .  S
Zr1849     O1860   2.369       .  S
O1850      H1906   0.990       .  S
O1850      H1914   0.990       .  S
O1851      C1871   1.287       .  A
O1852      C1873   1.279       .  A
O1853     Zr1863   2.607       .  S
O1853      C1872   1.320       .  A
O1854     Zr1862   2.449       .  S
O1854      C1873   1.286       .  A
O1855      C1872   1.282       .  A
O1856     Zr1864   2.403       .  S
O1856      C1871   1.277       .  A
O1857     Zr1862   2.406       .  S
O1857     Zr1864   2.375       .  S
O1858     Zr1863   2.410       .  S
O1858     Zr1864   2.412       .  S
O1858      H1893   0.962       .  S
O1859     Zr1862   2.392       .  S
O1859     Zr1879   2.426   1_556  S
O1859      H1896   0.965       .  S
O1860     Zr1863   2.356       .  S
O1860     Zr1879   2.364   1_556  S
Zr1861     O1886   2.447   1_556  S
Zr1861     O1880   2.416   1_556  S
Zr1861     O1888   2.426       .  S
Zr1861     O1876   2.375   1_556  S
Zr1861     O1867   2.362       .  S
Zr1861     O1868   2.411       .  S
Zr1861     O1869   2.373   1_556  S
Zr1861     O1870   2.382   1_556  S
Zr1862     O1881   2.438       .  S
Zr1862     O1874   2.435       .  S
Zr1862     O1875   2.455       .  S
Zr1862     O1868   2.402       .  S
Zr1862     O1869   2.395   1_556  S
Zr1863     O1865   2.435       .  S
Zr1863     O1887   2.437       .  S
Zr1863     O1889   2.611       .  S
Zr1863     O1867   2.375       .  S
Zr1863     O1870   2.402   1_556  S
Zr1864     O1890   2.434       .  S
Zr1864     O1891   2.435       .  S
Zr1864     O1866   2.437       .  S
Zr1864     O1867   2.365       .  S
Zr1864     O1868   2.406       .  S
O1865      H1902   0.990       .  S
O1866      H1897   0.990       .  S
O1866      H1911   0.990       .  S
O1868      H1894   0.966       .  S
O1869     Zr1879   2.353       .  S
O1870     Zr1879   2.407       .  S
O1870      H1895   0.967       .  S
C1871      C3653   1.468       .  S
C1872      C3540   1.525       .  S
C1873      C3693   1.479       .  S
O1874      H1910   0.990       .  S
O1875      C1877   1.288   1_556  A
O1876      C1877   1.273       .  A
C1877      C3530   1.477       .  S
O1878     Zr1879   2.437       .  S
O1878      H1907   0.990       .  S
Zr1879     O1882   2.436       .  S
Zr1879     O1883   2.435       .  S
Zr1879     O1884   2.423       .  S
O1880      C1885   1.281       .  A
O1881      H1898   0.990   1_556  S
O1881      H1913   0.990       .  S
O1882      H1899   0.990       .  S
O1883      H1903   0.990       .  S
O1883      H1912   0.990       .  S
O1884      C1885   1.282       .  A
C1885      C3560   1.476       .  S
O1886      H1905   0.990       .  S
O1886      H1909   0.991   1_554  S
O1887      H1901   0.990       .  S
O1887      H1908   0.990       .  S
O1888      C1892   1.280       .  A
O1889      C1892   1.320       .  A
O1890      H1900   0.990       .  S
O1891      H1904   0.990       .  S
C1892      C3550   1.533       .  S
Zr1915     O1916   2.441   1_655  S
Zr1915     O1917   2.409       .  S
Zr1915     O1918   2.413       .  S
Zr1915     O1921   2.418       .  S
Zr1915     O1923   2.384       .  S
Zr1915     O1924   2.397       .  S
Zr1915     O1925   2.413       .  S
Zr1915     O1926   2.373       .  S
O1916      H1972   0.990       .  S
O1916      H1980   0.990       .  S
O1917      C1937   1.280       .  A
O1918      C1939   1.278       .  A
O1919     Zr1929   2.629       .  S
O1919      C1938   1.322       .  A
O1920     Zr1928   2.427       .  S
O1920      C1939   1.285       .  A
O1921      C1938   1.274       .  A
O1922     Zr1930   2.418       .  S
O1922      C1937   1.281       .  A
O1923     Zr1928   2.406       .  S
O1923     Zr1930   2.373       .  S
O1924     Zr1929   2.391       .  S
O1924     Zr1930   2.395       .  S
O1924      H1959   0.965       .  S
O1925     Zr1928   2.418       .  S
O1925     Zr1945   2.409       .  S
O1925      H1962   0.966       .  S
O1926     Zr1929   2.368       .  S
O1926     Zr1945   2.357       .  S
Zr1927     O1952   2.452       .  S
Zr1927     O1946   2.458       .  S
Zr1927     O1954   2.399       .  S
Zr1927     O1942   2.431       .  S
Zr1927     O1934   2.419       .  S
Zr1927     O1935   2.373       .  S
Zr1927     O1936   2.394       .  S
Zr1927     O1933   2.299       .  S
Zr1928     O1947   2.439       .  S
Zr1928     O1940   2.437       .  S
Zr1928     O1941   2.468       .  S
Zr1928     O1934   2.404       .  S
Zr1928     O1935   2.398       .  S
Zr1929     O1931   2.443   1_556  S
Zr1929     O1953   2.443   1_556  S
Zr1929     O1955   2.630       .  S
Zr1929     O1936   2.406       .  S
Zr1929     O1933   2.264       .  S
Zr1930     O1956   2.435       .  S
Zr1930     O1957   2.435       .  S
Zr1930     O1932   2.459       .  S
Zr1930     O1934   2.420       .  S
Zr1930     O1933   2.295       .  S
O1931      H1968   0.990       .  S
O1932      H1963   0.991       .  S
O1932      H1977   0.990       .  S
O1934      H1960   0.966       .  S
O1935     Zr1945   2.347       .  S
O1936     Zr1945   2.422       .  S
O1936      H1961   0.964       .  S
C1937      C3673   1.476       .  S
C1938      C3543   1.531   1_655  S
C1939      C3663   1.468   1_655  S
O1940      H1976   0.990       .  S
O1941      C1943   1.284       .  A
O1942      C1943   1.276       .  A
C1943      C4193   1.481       .  S
O1944     Zr1945   2.431   1_455  S
O1944      H1973   0.989       .  S
Zr1945     O1948   2.437       .  S
Zr1945     O1949   2.437       .  S
Zr1945     O1950   2.393       .  S
O1946      C1951   1.287       .  A
O1947      H1964   0.990       .  S
O1947      H1979   0.990       .  S
O1948      H1965   0.990       .  S
O1949      H1969   0.990       .  S
O1949      H1978   0.990       .  S
O1950      C1951   1.275       .  A
C1951      C4063   1.473       .  S
O1952      H1971   0.990       .  S
O1952      H1975   0.990       .  S
O1953      H1967   0.990       .  S
O1953      H1974   0.990       .  S
O1954      C1958   1.277       .  A
O1955      C1958   1.325       .  A
O1956      H1966   0.990       .  S
O1957      H1970   0.990       .  S
C1958      C3520   1.541       .  S
Zr1981     O1982   2.441       .  S
Zr1981     O1983   2.424       .  S
Zr1981     O1984   2.401       .  S
Zr1981     O1987   2.405       .  S
Zr1981     O1989   2.359       .  S
Zr1981     O1990   2.393       .  S
Zr1981     O1991   2.415       .  S
Zr1981     O1992   2.390   1_554  S
O1982      H2038   0.990       .  S
O1982      H2046   0.991       .  S
O1983      C2003   1.283       .  A
O1984      C2005   1.280       .  A
O1985     Zr1995   2.588       .  S
O1985      C2004   1.314       .  A
O1986     Zr1994   2.467       .  S
O1986      C2005   1.293       .  A
O1987      C2004   1.273   1_554  A
O1988     Zr1996   2.446       .  S
O1988      C2003   1.285       .  A
O1989     Zr1994   2.390       .  S
O1989     Zr1996   2.342       .  S
O1990     Zr1995   2.408   1_554  S
O1990     Zr1996   2.397       .  S
O1990      H2025   0.964       .  S
O1991     Zr1994   2.410       .  S
O1991     Zr2011   2.414   1_554  S
O1991      H2028   0.967       .  S
O1992     Zr1995   2.390       .  S
O1992     Zr2011   2.362       .  S
Zr1993     O2018   2.450   1_554  S
Zr1993     O2012   2.457   1_554  S
Zr1993     O2020   2.387       .  S
Zr1993     O2008   2.404       .  S
Zr1993     O1999   2.386       .  S
Zr1993     O2000   2.423       .  S
Zr1993     O2001   2.370       .  S
Zr1993     O2002   2.398   1_554  S
Zr1994     O2013   2.436       .  S
Zr1994     O2006   2.436       .  S
Zr1994     O2007   2.490       .  S
Zr1994     O2000   2.404       .  S
Zr1994     O2001   2.387       .  S
Zr1995     O1997   2.434       .  S
Zr1995     O2019   2.438       .  S
Zr1995     O2021   2.617       .  S
Zr1995     O1999   2.376   1_556  S
Zr1995     O2002   2.381       .  S
Zr1996     O2022   2.434       .  S
Zr1996     O2023   2.435       .  S
Zr1996     O1998   2.440       .  S
Zr1996     O1999   2.377       .  S
Zr1996     O2000   2.436       .  S
O1997      H2034   0.990       .  S
O1998      H2029   0.990       .  S
O1998      H2043   0.990       .  S
O2000      H2026   0.965       .  S
O2001     Zr2011   2.351   1_554  S
O2002     Zr2011   2.410       .  S
O2002      H2027   0.964       .  S
C2003      C3593   1.478       .  S
C2004      C3510   1.514       .  S
C2005      C3583   1.482       .  S
O2006      H2042   0.990       .  S
O2007      C2009   1.290       .  A
O2008      C2009   1.273       .  A
C2009      C4073   1.488       .  S
O2010     Zr2011   2.440       .  S
O2010      H2039   0.990       .  S
Zr2011     O2014   2.435       .  S
Zr2011     O2015   2.438       .  S
Zr2011     O2016   2.403       .  S
O2012      C2017   1.287       .  A
O2013      H2030   0.990       .  S
O2013      H2045   0.990       .  S
O2014      H2031   0.989       .  S
O2015      H2035   0.990       .  S
O2015      H2044   0.989       .  S
O2016      C2017   1.280       .  A
C2017      C4163   1.472       .  S
O2018      H2037   0.989   1_556  S
O2018      H2041   0.990       .  S
O2019      H2033   0.990       .  S
O2019      H2040   0.990       .  S
O2020      C2024   1.266   1_554  A
O2021      C2024   1.316       .  A
O2022      H2032   0.990       .  S
O2023      H2036   0.990       .  S
C2024      C3523   1.530       .  S
Zr2047     O2048   2.438   1_554  S
Zr2047     O2049   2.445       .  S
Zr2047     O2050   2.449       .  S
Zr2047     O2053   2.430   1_554  S
Zr2047     O2055   2.359       .  S
Zr2047     O2056   2.408   1_554  S
Zr2047     O2057   2.415       .  S
Zr2047     O2058   2.373   1_554  S
O2048      H2104   0.991       .  S
O2048      H2112   0.990       .  S
O2049      C2069   1.286       .  A
O2050      C2071   1.287       .  A
O2051     Zr2061   2.609       .  S
O2051      C2070   1.322       .  A
O2052     Zr2060   2.413       .  S
O2052      C2071   1.282       .  A
O2053      C2070   1.285       .  A
O2054     Zr2062   2.395       .  S
O2054      C2069   1.274       .  A
O2055     Zr2060   2.351       .  S
O2055     Zr2062   2.366       .  S
O2056     Zr2061   2.427       .  S
O2056     Zr2062   2.410   1_556  S
O2056      H2091   0.967       .  S
O2057     Zr2060   2.386       .  S
O2057     Zr2077   2.433       .  S
O2057      H2094   0.966       .  S
O2058     Zr2061   2.341       .  S
O2058     Zr2077   2.356   1_556  S
Zr2059     O2084   2.444       .  S
Zr2059     O2078   2.438       .  S
Zr2059     O2086   2.446   1_554  S
Zr2059     O2074   2.453       .  S
Zr2059     O2065   2.387   1_554  S
Zr2059     O2066   2.440       .  S
Zr2059     O2067   2.390       .  S
Zr2059     O2068   2.420       .  S
Zr2060     O2079   2.435       .  S
Zr2060     O2072   2.436       .  S
Zr2060     O2073   2.383       .  S
Zr2060     O2066   2.412       .  S
Zr2060     O2067   2.366       .  S
Zr2061     O2063   2.436       .  S
Zr2061     O2085   2.437       .  S
Zr2061     O2087   2.579       .  S
Zr2061     O2065   2.374       .  S
Zr2061     O2068   2.423   1_556  S
Zr2062     O2088   2.437   1_554  S
Zr2062     O2089   2.438       .  S
Zr2062     O2064   2.442       .  S
Zr2062     O2065   2.353   1_554  S
Zr2062     O2066   2.407       .  S
O2063      H2100   0.989       .  S
O2064      H2095   0.991       .  S
O2064      H2109   0.990       .  S
O2066      H2092   0.964       .  S
O2067     Zr2077   2.374       .  S
O2068     Zr2077   2.417       .  S
O2068      H2093   0.967   1_554  S
C2069      C3503   1.460       .  S
C2070      C3553   1.527       .  S
C2071      C3490   1.484       .  S
O2072      H2108   0.990       .  S
O2073      C2075   1.267       .  A
O2074      C2075   1.280       .  A
C2075      C3613   1.475       .  S
O2076     Zr2077   2.432       .  S
O2076      H2105   0.990       .  S
Zr2077     O2080   2.435       .  S
Zr2077     O2081   2.442   1_554  S
Zr2077     O2082   2.420       .  S
O2078      C2083   1.277       .  A
O2079      H2096   0.989       .  S
O2079      H2111   0.989       .  S
O2080      H2097   0.990       .  S
O2081      H2101   0.990       .  S
O2081      H2110   0.989       .  S
O2082      C2083   1.272       .  A
C2083      C3573   1.480       .  S
O2084      H2103   0.989       .  S
O2084      H2107   0.990       .  S
O2085      H2099   0.990       .  S
O2085      H2106   0.990       .  S
O2086      C2090   1.287       .  A
O2087      C2090   1.315       .  A
O2088      H2098   0.990       .  S
O2089      H2102   0.990       .  S
C2090      C3513   1.517       .  S
Zr2113     O2114   2.442       .  S
Zr2113     O2115   2.468       .  S
Zr2113     O2116   2.404       .  S
Zr2113     O2119   2.430       .  S
Zr2113     O2121   2.372       .  S
Zr2113     O2122   2.389       .  S
Zr2113     O2123   2.432       .  S
Zr2113     O2124   2.371       .  S
O2114      H2170   0.989       .  S
O2114      H2178   0.991       .  S
O2115      C2135   1.290       .  A
O2116      C2137   1.273       .  A
O2117     Zr2127   2.614       .  S
O2117      C2136   1.321       .  A
O2118     Zr2126   2.460       .  S
O2118      C2137   1.287       .  A
O2119      C2136   1.283       .  A
O2120     Zr2128   2.371       .  S
O2120      C2135   1.270       .  A
O2121     Zr2126   2.390       .  S
O2121     Zr2128   2.343       .  S
O2122     Zr2127   2.422       .  S
O2122     Zr2128   2.428       .  S
O2122      H2157   0.970       .  S
O2123     Zr2126   2.397       .  S
O2123     Zr2143   2.417       .  S
O2123      H2160   0.966       .  S
O2124     Zr2127   2.359       .  S
O2124     Zr2143   2.382       .  S
Zr2125     O2150   2.445       .  S
Zr2125     O2144   2.407       .  S
Zr2125     O2152   2.427       .  S
Zr2125     O2140   2.379       .  S
Zr2125     O2131   2.344       .  S
Zr2125     O2132   2.419       .  S
Zr2125     O2133   2.379       .  S
Zr2125     O2134   2.384       .  S
Zr2126     O2145   2.438       .  S
Zr2126     O2138   2.437       .  S
Zr2126     O2139   2.435       .  S
Zr2126     O2132   2.418       .  S
Zr2126     O2133   2.401       .  S
Zr2127     O2129   2.436       .  S
Zr2127     O2151   2.434       .  S
Zr2127     O2153   2.621       .  S
Zr2127     O2131   2.352       .  S
Zr2127     O2134   2.419       .  S
Zr2128     O2154   2.435       .  S
Zr2128     O2155   2.436       .  S
Zr2128     O2130   2.444       .  S
Zr2128     O2131   2.341       .  S
Zr2128     O2132   2.403       .  S
O2129      H2166   0.990       .  S
O2130      H2161   0.990       .  S
O2130      H2175   0.990       .  S
O2132      H2158   0.967       .  S
O2133     Zr2143   2.351       .  S
O2134     Zr2143   2.411       .  S
O2134      H2159   0.966       .  S
C2135      C4150   1.475       .  S
C2136      C3460   1.535       .  S
C2137      C4143   1.481       .  S
O2138      H2174   0.990       .  S
O2139      C2141   1.286       .  A
O2140      C2141   1.273       .  A
C2141      C3450   1.466       .  S
O2142     Zr2143   2.433       .  S
O2142      H2171   0.990       .  S
Zr2143     O2146   2.439       .  S
Zr2143     O2147   2.433       .  S
Zr2143     O2148   2.429       .  S
O2144      C2149   1.278       .  A
O2145      H2162   0.990       .  S
O2145      H2177   0.990       .  S
O2146      H2163   0.990       .  S
O2147      H2167   0.990       .  S
O2147      H2176   0.990       .  S
O2148      C2149   1.282       .  A
C2149      C3480   1.474       .  S
O2150      H2169   0.991       .  S
O2150      H2173   0.990       .  S
O2151      H2165   0.990       .  S
O2151      H2172   0.990       .  S
O2152      C2156   1.277       .  A
O2153      C2156   1.320       .  A
O2154      H2164   0.990       .  S
O2155      H2168   0.991       .  S
C2156      C3470   1.531       .  S
Zr2179     O2180   2.441       .  S
Zr2179     O2181   2.412       .  S
Zr2179     O2182   2.394       .  S
Zr2179     O2185   2.398       .  S
Zr2179     O2187   2.371       .  S
Zr2179     O2188   2.386       .  S
Zr2179     O2189   2.407       .  S
Zr2179     O2190   2.378       .  S
O2180      H2236   0.990       .  S
O2180      H2244   0.990       .  S
O2181      C2201   1.279       .  A
O2182      C2203   1.277       .  A
O2183     Zr2193   2.624       .  S
O2183      C2202   1.320       .  A
O2184     Zr2192   2.423       .  S
O2184      C2203   1.285       .  A
O2185      C2202   1.271       .  A
O2186     Zr2194   2.442       .  S
O2186      C2201   1.284       .  A
O2187     Zr2192   2.390       .  S
O2187     Zr2194   2.348       .  S
O2188     Zr2193   2.413       .  S
O2188     Zr2194   2.401       .  S
O2188      H2223   0.966       .  S
O2189     Zr2192   2.404       .  S
O2189     Zr2209   2.408       .  S
O2189      H2226   0.966       .  S
O2190     Zr2193   2.368       .  S
O2190     Zr2209   2.354       .  S
Zr2191     O2216   2.448       .  S
Zr2191     O2210   2.461       .  S
Zr2191     O2218   2.435       .  S
Zr2191     O2206   2.416       .  S
Zr2191     O2197   2.383       .  S
Zr2191     O2198   2.428       .  S
Zr2191     O2199   2.364       .  S
Zr2191     O2200   2.388       .  S
Zr2192     O2211   2.436       .  S
Zr2192     O2204   2.437       .  S
Zr2192     O2205   2.438       .  S
Zr2192     O2198   2.400       .  S
Zr2192     O2199   2.385       .  S
Zr2193     O2195   2.435       .  S
Zr2193     O2217   2.434       .  S
Zr2193     O2219   2.607       .  S
Zr2193     O2197   2.369       .  S
Zr2193     O2200   2.422       .  S
Zr2194     O2220   2.437       .  S
Zr2194     O2221   2.432       .  S
Zr2194     O2196   2.441       .  S
Zr2194     O2197   2.378       .  S
Zr2194     O2198   2.433       .  S
O2195      H2232   0.990       .  S
O2196      H2227   0.990       .  S
O2196      H2241   0.989       .  S
O2198      H2224   0.966       .  S
O2199     Zr2209   2.358       .  S
O2200     Zr2209   2.414       .  S
O2200      H2225   0.964       .  S
C2201      C4123   1.474       .  S
C2202      C3463   1.534       .  S
C2203      C4203   1.461       .  S
O2204      H2240   0.990       .  S
O2205      C2207   1.284       .  A
O2206      C2207   1.278       .  A
C2207      C4003   1.481       .  S
O2208     Zr2209   2.435       .  S
O2208      H2237   0.991       .  S
Zr2209     O2212   2.439       .  S
Zr2209     O2213   2.443       .  S
Zr2209     O2214   2.369       .  S
O2210      C2215   1.287       .  A
O2211      H2228   0.990       .  S
O2211      H2243   0.990       .  S
O2212      H2229   0.990       .  S
O2213      H2233   0.989       .  S
O2213      H2242   0.990       .  S
O2214      C2215   1.270       .  A
C2215      C3933   1.474       .  S
O2216      H2235   0.990       .  S
O2216      H2239   0.990       .  S
O2217      H2231   0.990       .  S
O2217      H2238   0.990       .  S
O2218      C2222   1.285       .  A
O2219      C2222   1.320       .  A
O2220      H2230   0.990       .  S
O2221      H2234   0.990       .  S
C2222      C3440   1.534       .  S
Zr2245     O2246   2.444       .  S
Zr2245     O2247   2.403       .  S
Zr2245     O2248   2.405       .  S
Zr2245     O2251   2.412       .  S
Zr2245     O2253   2.372       .  S
Zr2245     O2254   2.391       .  S
Zr2245     O2255   2.409       .  S
Zr2245     O2256   2.385       .  S
O2246      H2302   0.990       .  S
O2246      H2310   0.989       .  S
O2247      C2267   1.276       .  A
O2248      C2269   1.279       .  A
O2249     Zr2259   2.593       .  S
O2249      C2268   1.311       .  A
O2250     Zr2258   2.420       .  S
O2250      C2269   1.284       .  A
O2251      C2268   1.271       .  A
O2252     Zr2260   2.437       .  S
O2252      C2267   1.283       .  A
O2253     Zr2258   2.393       .  S
O2253     Zr2260   2.348       .  S
O2254     Zr2259   2.427       .  S
O2254     Zr2260   2.401       .  S
O2254      H2289   0.966       .  S
O2255     Zr2258   2.404       .  S
O2255     Zr2275   2.399       .  S
O2255      H2292   0.967       .  S
O2256     Zr2259   2.380       .  S
O2256     Zr2275   2.355       .  S
Zr2257     O2282   2.444       .  S
Zr2257     O2276   2.452       .  S
Zr2257     O2284   2.438       .  S
Zr2257     O2272   2.415       .  S
Zr2257     O2263   2.380       .  S
Zr2257     O2264   2.423       .  S
Zr2257     O2265   2.367       .  S
Zr2257     O2266   2.391       .  S
Zr2258     O2277   2.435       .  S
Zr2258     O2270   2.433       .  S
Zr2258     O2271   2.442       .  S
Zr2258     O2264   2.400       .  S
Zr2258     O2265   2.384       .  S
Zr2259     O2261   2.437       .  S
Zr2259     O2283   2.435       .  S
Zr2259     O2285   2.590       .  S
Zr2259     O2263   2.372       .  S
Zr2259     O2266   2.419       .  S
Zr2260     O2286   2.436       .  S
Zr2260     O2287   2.435       .  S
Zr2260     O2262   2.438       .  S
Zr2260     O2263   2.377       .  S
Zr2260     O2264   2.421       .  S
O2261      H2298   0.990       .  S
O2262      H2293   0.991       .  S
O2262      H2307   0.990       .  S
O2264      H2290   0.965       .  S
O2265     Zr2275   2.367       .  S
O2266     Zr2275   2.413       .  S
O2266      H2291   0.966       .  S
C2267      C3983   1.479       .  S
C2268      C3443   1.528       .  S
C2269      C3963   1.463       .  S
O2270      H2306   0.990       .  S
O2271      C2273   1.285       .  A
O2272      C2273   1.279       .  A
C2273      C3410   1.485       .  S
O2274     Zr2275   2.436       .  S
O2274      H2303   0.990       .  S
Zr2275     O2278   2.436       .  S
Zr2275     O2279   2.442       .  S
Zr2275     O2280   2.378       .  S
O2276      C2281   1.287       .  A
O2277      H2294   0.990       .  S
O2277      H2309   0.990       .  S
O2278      H2295   0.990       .  S
O2279      H2299   0.990       .  S
O2279      H2308   0.990       .  S
O2280      C2281   1.273       .  A
C2281      C3430   1.473       .  S
O2282      H2301   0.991       .  S
O2282      H2305   0.990       .  S
O2283      H2297   0.990       .  S
O2283      H2304   0.990       .  S
O2284      C2288   1.281       .  A
O2285      C2288   1.315       .  A
O2286      H2296   0.990       .  S
O2287      H2300   0.990       .  S
C2288      C3420   1.529       .  S
Zr2311     O2312   2.446       .  S
Zr2311     O2313   2.471       .  S
Zr2311     O2314   2.401       .  S
Zr2311     O2317   2.426       .  S
Zr2311     O2319   2.368       .  S
Zr2311     O2320   2.391       .  S
Zr2311     O2321   2.441       .  S
Zr2311     O2322   2.373       .  S
O2312      H2368   0.990       .  S
O2312      H2376   0.991       .  S
O2313      C2333   1.289       .  A
O2314      C2335   1.272       .  A
O2315     Zr2325   2.601       .  S
O2315      C2334   1.318       .  A
O2316     Zr2324   2.458       .  S
O2316      C2335   1.286       .  A
O2317      C2334   1.282       .  A
O2318     Zr2326   2.359       .  S
O2318      C2333   1.269       .  A
O2319     Zr2324   2.386       .  S
O2319     Zr2326   2.363       .  S
O2320     Zr2325   2.418       .  S
O2320     Zr2326   2.417       .  S
O2320      H2355   0.966       .  S
O2321     Zr2324   2.389       .  S
O2321     Zr2341   2.432       .  S
O2321      H2358   0.966       .  S
O2322     Zr2325   2.345       .  S
O2322     Zr2341   2.365       .  S
Zr2323     O2348   2.446       .  S
Zr2323     O2342   2.402       .  S
Zr2323     O2350   2.440       .  S
Zr2323     O2338   2.406       .  S
Zr2323     O2329   2.358       .  S
Zr2323     O2330   2.407       .  S
Zr2323     O2331   2.389       .  S
Zr2323     O2332   2.398       .  S
Zr2324     O2343   2.435       .  S
Zr2324     O2336   2.438       .  S
Zr2324     O2337   2.416       .  S
Zr2324     O2330   2.403       .  S
Zr2324     O2331   2.397       .  S
Zr2325     O2327   2.435       .  S
Zr2325     O2349   2.434       .  S
Zr2325     O2351   2.589       .  S
Zr2325     O2329   2.364       .  S
Zr2325     O2332   2.418       .  S
Zr2326     O2352   2.435       .  S
Zr2326     O2353   2.433       .  S
Zr2326     O2328   2.441       .  S
Zr2326     O2329   2.340       .  S
Zr2326     O2330   2.388       .  S
O2327      H2364   0.990       .  S
O2328      H2359   0.990       .  S
O2328      H2373   0.990       .  S
O2330      H2356   0.966       .  S
O2331     Zr2341   2.361       .  S
O2332     Zr2341   2.403       .  S
O2332      H2357   0.967       .  S
C2333      C3400   1.469       .  S
C2334      C3473   1.522       .  S
C2335      C3373   1.482       .  S
O2336      H2372   0.990       .  S
O2337      C2339   1.284       .  A
O2338      C2339   1.280       .  A
C2339      C3380   1.466       .  S
O2340     Zr2341   2.433       .  S
O2340      H2369   0.990       .  S
Zr2341     O2344   2.435       .  S
Zr2341     O2345   2.439       .  S
Zr2341     O2346   2.445       .  S
O2342      C2347   1.273       .  A
O2343      H2360   0.990       .  S
O2343      H2375   0.990       .  S
O2344      H2361   0.990       .  S
O2345      H2365   0.990       .  S
O2345      H2374   0.990       .  S
O2346      C2347   1.284       .  A
C2347      C3390   1.476       .  S
O2348      H2367   0.991       .  S
O2348      H2371   0.990       .  S
O2349      H2363   0.990       .  S
O2349      H2370   0.990       .  S
O2350      C2354   1.280       .  A
O2351      C2354   1.314       .  A
O2352      H2362   0.990       .  S
O2353      H2366   0.990       .  S
C2354      C3423   1.528       .  S
Zr2377     O2378   2.450       .  S
Zr2377     O2379   2.449       .  S
Zr2377     O2380   2.412       .  S
Zr2377     O2383   2.432       .  S
Zr2377     O2385   2.394       .  S
Zr2377     O2386   2.379       .  S
Zr2377     O2387   2.434       .  S
Zr2377     O2388   2.396       .  S
O2378      H2434   0.991       .  S
O2378      H2442   0.990       .  S
O2379      C2399   1.285       .  A
O2380      C2401   1.278       .  A
O2381     Zr2391   2.427       .  S
O2381      C2400   1.281       .  A
O2382     Zr2390   2.609       .  S
O2382      C2401   1.319       .  A
O2383      C2400   1.285       .  A
O2384     Zr2392   2.421       .  S
O2384      C2399   1.281       .  A
O2385     Zr2390   2.442       .  S
O2385     Zr2392   2.392       .  S
O2386     Zr2391   2.374       .  S
O2386     Zr2392   2.378       .  S
O2386      H2421   0.965       .  S
O2387     Zr2390   2.427       .  S
O2387     Zr2407   2.384       .  S
O2387      H2424   0.964       .  S
O2388     Zr2391   2.397       .  S
O2388     Zr2407   2.387       .  S
Zr2389     O2414   2.442       .  S
Zr2389     O2408   2.444       .  S
Zr2389     O2416   2.412       .  S
Zr2389     O2404   2.353       .  S
Zr2389     O2395   2.398       .  S
Zr2389     O2396   2.429   1_554  S
Zr2389     O2397   2.401   1_554  S
Zr2389     O2398   2.407   1_554  S
Zr2390     O2409   2.441       .  S
Zr2390     O2402   2.434       .  S
Zr2390     O2403   2.665   1_556  S
Zr2390     O2396   2.414       .  S
Zr2390     O2397   2.369       .  S
Zr2391     O2393   2.429       .  S
Zr2391     O2415   2.435       .  S
Zr2391     O2417   2.439   1_556  S
Zr2391     O2395   2.396   1_556  S
Zr2391     O2398   2.377       .  S
Zr2392     O2418   2.435       .  S
Zr2392     O2419   2.436   1_556  S
Zr2392     O2394   2.437       .  S
Zr2392     O2395   2.401   1_556  S
Zr2392     O2396   2.384       .  S
O2393      H2430   0.989       .  S
O2394      H2425   0.990       .  S
O2394      H2439   0.990       .  S
O2396      H2422   0.965   1_556  S
O2397     Zr2407   2.375       .  S
O2398     Zr2407   2.363       .  S
O2398      H2423   0.961   1_556  S
C2399      C3413   1.487       .  S
C2400      C3393   1.464       .  S
C2401      C3360   1.544       .  S
O2402      H2438   0.990       .  S
O2403      C2405   1.328       .  A
O2404      C2405   1.259       .  A
C2405      C3350   1.552       .  S
O2406     Zr2407   2.437       .  S
O2406      H2435   0.990       .  S
Zr2407     O2410   2.435       .  S
Zr2407     O2411   2.441       .  S
Zr2407     O2412   2.417   1_556  S
O2408      C2413   1.277       .  A
O2409      H2426   0.990       .  S
O2409      H2441   0.990       .  S
O2410      H2427   0.990       .  S
O2411      H2431   0.990       .  S
O2411      H2440   0.990       .  S
O2412      C2413   1.272       .  A
C2413      C3533   1.459       .  S
O2414      H2433   0.991       .  S
O2414      H2437   0.990       .  S
O2415      H2429   0.990       .  S
O2415      H2436   0.990       .  S
O2416      C2420   1.276       .  A
O2417      C2420   1.277       .  A
O2418      H2428   0.990       .  S
O2419      H2432   0.990       .  S
C2420      C3500   1.471       .  S
Zr2443     O2444   2.439       .  S
Zr2443     O2445   2.401       .  S
Zr2443     O2446   2.342       .  S
Zr2443     O2449   2.425       .  S
Zr2443     O2451   2.406       .  S
Zr2443     O2452   2.382       .  S
Zr2443     O2453   2.421       .  S
Zr2443     O2454   2.378       .  S
O2444      H2500   0.990       .  S
O2444      H2508   0.990       .  S
O2445      C2465   1.276       .  A
O2446      C2467   1.263       .  A
O2447     Zr2457   2.441       .  S
O2447      C2466   1.285       .  A
O2448     Zr2456   2.668       .  S
O2448      C2467   1.333       .  A
O2449      C2466   1.283       .  A
O2450     Zr2458   2.428       .  S
O2450      C2465   1.279       .  A
O2451     Zr2456   2.394       .  S
O2451     Zr2458   2.377       .  S
O2452     Zr2457   2.362       .  S
O2452     Zr2458   2.342       .  S
O2452      H2487   0.965       .  S
O2453     Zr2456   2.402       .  S
O2453     Zr2473   2.364       .  S
O2453      H2490   0.968       .  S
O2454     Zr2457   2.394       .  S
O2454     Zr2473   2.408       .  S
Zr2455     O2480   2.445       .  S
Zr2455     O2474   2.440       .  S
Zr2455     O2482   2.418       .  S
Zr2455     O2470   2.397       .  S
Zr2455     O2461   2.394       .  S
Zr2455     O2462   2.424       .  S
Zr2455     O2463   2.390       .  S
Zr2455     O2464   2.389       .  S
Zr2456     O2475   2.433       .  S
Zr2456     O2468   2.435       .  S
Zr2456     O2469   2.651       .  S
Zr2456     O2462   2.411       .  S
Zr2456     O2463   2.424       .  S
Zr2457     O2459   2.435       .  S
Zr2457     O2481   2.443       .  S
Zr2457     O2483   2.424       .  S
Zr2457     O2461   2.397       .  S
Zr2457     O2464   2.377       .  S
Zr2458     O2484   2.438       .  S
Zr2458     O2485   2.435       .  S
Zr2458     O2460   2.436       .  S
Zr2458     O2461   2.385       .  S
Zr2458     O2462   2.383       .  S
O2459      H2496   0.990       .  S
O2460      H2491   0.990       .  S
O2460      H2505   0.991       .  S
O2462      H2488   0.966       .  S
O2463     Zr2473   2.397       .  S
O2464     Zr2473   2.381       .  S
O2464      H2489   0.965       .  S
C2465      C3383   1.449       .  S
C2466      C3433   1.478       .  S
C2467      C3363   1.542       .  S
O2468      H2504   0.990       .  S
O2469      C2471   1.329       .  A
O2470      C2471   1.275       .  A
C2471      C3340   1.559       .  S
O2472     Zr2473   2.440       .  S
O2472      H2501   0.991       .  S
Zr2473     O2476   2.437       .  S
Zr2473     O2477   2.438       .  S
Zr2473     O2478   2.406       .  S
O2474      C2479   1.284       .  A
O2475      H2492   0.990       .  S
O2475      H2507   0.990       .  S
O2476      H2493   0.990       .  S
O2477      H2497   0.990       .  S
O2477      H2506   0.990       .  S
O2478      C2479   1.280       .  A
C2479      C4353   1.473       .  S
O2480      H2499   0.990       .  S
O2480      H2503   0.991       .  S
O2481      H2495   0.990       .  S
O2481      H2502   0.990       .  S
O2482      C2486   1.278       .  A
O2483      C2486   1.279       .  A
O2484      H2494   0.990       .  S
O2485      H2498   0.991       .  S
C2486      C4243   1.459       .  S
Zr2509     O2510   2.458       .  S
Zr2509     O2511   2.484       .  S
Zr2509     O2512   2.367       .  S
Zr2509     O2515   2.423       .  S
Zr2509     O2518   2.359       .  S
Zr2509     O2519   2.428       .  S
Zr2509     O2520   2.421       .  S
Zr2509     O2517   2.292       .  S
O2510      H2566   0.990       .  S
O2510      H2574   0.992       .  S
O2511      C2531   1.292       .  A
O2512      C2533   1.266       .  A
O2513     Zr2523   2.398       .  S
O2513      C2532   1.278       .  A
O2514     Zr2522   2.681       .  S
O2514      C2533   1.335       .  A
O2515      C2532   1.280       .  A
O2516     Zr2524   2.349       .  S
O2516      C2531   1.270       .  A
O2517     Zr2522   2.332       .  S
O2517     Zr2524   2.333       .  S
O2518     Zr2523   2.377       .  S
O2518     Zr2524   2.346       .  S
O2518      H2553   0.967       .  S
O2519     Zr2522   2.409       .  S
O2519     Zr2539   2.381       .  S
O2519      H2556   0.965       .  S
O2520     Zr2523   2.387       .  S
O2520     Zr2539   2.429       .  S
Zr2521     O2546   2.445       .  S
Zr2521     O2540   2.426       .  S
Zr2521     O2548   2.448       .  S
Zr2521     O2536   2.415       .  S
Zr2521     O2527   2.402       .  S
Zr2521     O2528   2.403       .  S
Zr2521     O2529   2.402       .  S
Zr2521     O2530   2.369       .  S
Zr2522     O2541   2.449       .  S
Zr2522     O2534   2.432       .  S
Zr2522     O2535   2.647       .  S
Zr2522     O2528   2.414       .  S
Zr2522     O2529   2.448       .  S
Zr2523     O2525   2.433       .  S
Zr2523     O2547   2.440       .  S
Zr2523     O2549   2.375       .  S
Zr2523     O2527   2.393       .  S
Zr2523     O2530   2.393       .  S
Zr2524     O2550   2.444       .  S
Zr2524     O2551   2.449       .  S
Zr2524     O2526   2.442       .  S
Zr2524     O2527   2.384       .  S
Zr2524     O2528   2.321       .  S
O2525      H2562   0.990       .  S
O2526      H2557   0.990       .  S
O2526      H2571   0.990       .  S
O2528      H2554   0.942       .  S
O2529     Zr2539   2.393       .  S
O2530     Zr2539   2.353       .  S
O2530      H2555   0.966       .  S
C2531      C4213   1.473       .  S
C2532      C4393   1.470       .  S
C2533      C3343   1.548       .  S
O2534      H2570   0.990       .  S
O2535      C2537   1.330       .  A
O2536      C2537   1.282       .  A
C2537      C3320   1.542       .  S
O2538     Zr2539   2.435       .  S
O2538      H2567   0.990       .  S
Zr2539     O2542   2.434       .  S
Zr2539     O2543   2.438       .  S
Zr2539     O2544   2.450       .  S
O2540      C2545   1.281       .  A
O2541      H2558   0.990       .  S
O2541      H2573   0.990       .  S
O2542      H2559   0.990       .  S
O2543      H2563   0.990       .  S
O2543      H2572   0.989       .  S
O2544      C2545   1.284       .  A
C2545      C3330   1.495       .  S
O2546      H2565   0.990       .  S
O2546      H2569   0.991       .  S
O2547      H2561   0.990       .  S
O2547      H2568   0.990       .  S
O2548      C2552   1.287       .  A
O2549      C2552   1.274       .  A
O2550      H2560   0.991       .  S
O2551      H2564   0.991       .  S
C2552      C3310   1.457       .  S
Zr2575     O2576   2.440       .  S
Zr2575     O2577   2.426       .  S
Zr2575     O2578   2.354       .  S
Zr2575     O2581   2.420       .  S
Zr2575     O2583   2.406       .  S
Zr2575     O2584   2.385       .  S
Zr2575     O2585   2.434       .  S
Zr2575     O2586   2.381       .  S
O2576      H2632   0.990       .  S
O2576      H2640   0.990       .  S
O2577      C2597   1.276       .  A
O2578      C2599   1.259       .  A
O2579     Zr2589   2.463       .  S
O2579      C2598   1.292       .  A
O2580     Zr2588   2.656       .  S
O2580      C2599   1.327       .  A
O2581      C2598   1.284       .  A
O2582     Zr2590   2.436       .  S
O2582      C2597   1.278       .  A
O2583     Zr2588   2.385       .  S
O2583     Zr2590   2.371       .  S
O2584     Zr2589   2.371       .  S
O2584     Zr2590   2.346       .  S
O2584      H2619   0.962       .  S
O2585     Zr2588   2.415       .  S
O2585     Zr2605   2.366       .  S
O2585      H2622   0.965       .  S
O2586     Zr2589   2.386       .  S
O2586     Zr2605   2.408       .  S
Zr2587     O2612   2.441       .  S
Zr2587     O2606   2.431       .  S
Zr2587     O2614   2.425       .  S
Zr2587     O2602   2.386       .  S
Zr2587     O2593   2.397       .  S
Zr2587     O2594   2.413       .  S
Zr2587     O2595   2.395       .  S
Zr2587     O2596   2.369       .  S
Zr2588     O2607   2.434       .  S
Zr2588     O2600   2.436       .  S
Zr2588     O2601   2.633       .  S
Zr2588     O2594   2.413       .  S
Zr2588     O2595   2.420       .  S
Zr2589     O2591   2.434       .  S
Zr2589     O2613   2.441       .  S
Zr2589     O2615   2.429       .  S
Zr2589     O2593   2.415       .  S
Zr2589     O2596   2.393       .  S
Zr2590     O2616   2.437       .  S
Zr2590     O2617   2.434       .  S
Zr2590     O2592   2.435       .  S
Zr2590     O2593   2.407       .  S
Zr2590     O2594   2.375       .  S
O2591      H2628   0.990       .  S
O2592      H2623   0.990       .  S
O2592      H2637   0.989       .  S
O2594      H2620   0.965       .  S
O2595     Zr2605   2.384       .  S
O2596     Zr2605   2.360       .  S
O2596      H2621   0.966       .  S
C2597      C3300   1.457       .  S
C2598      C3290   1.475       .  S
C2599      C3323   1.544       .  S
O2600      H2636   0.990       .  S
O2601      C2603   1.327       .  A
O2602      C2603   1.277       .  A
C2603      C3353   1.556       .  S
O2604     Zr2605   2.436       .  S
O2604      H2633   0.990       .  S
Zr2605     O2608   2.435       .  S
Zr2605     O2609   2.441       .  S
Zr2605     O2610   2.415       .  S
O2606      C2611   1.283       .  A
O2607      H2624   0.990       .  S
O2607      H2639   0.990       .  S
O2608      H2625   0.990       .  S
O2609      H2629   0.990       .  S
O2609      H2638   0.989       .  S
O2610      C2611   1.282       .  A
C2611      C3493   1.479       .  S
O2612      H2631   0.991       .  S
O2612      H2635   0.990       .  S
O2613      H2627   0.990       .  S
O2613      H2634   0.991       .  S
O2614      C2618   1.283       .  A
O2615      C2618   1.281       .  A
O2616      H2626   0.990       .  S
O2617      H2630   0.990       .  S
C2618      C3563   1.458       .  S
Zr2641     O2642   2.442       .  S
Zr2641     O2643   2.443       .  S
Zr2641     O2644   2.419       .  S
Zr2641     O2647   2.431       .  S
Zr2641     O2649   2.366       .  S
Zr2641     O2650   2.394       .  S
Zr2641     O2651   2.420       .  S
Zr2641     O2652   2.367       .  S
O2642      H2698   0.992       .  S
O2642      H2706   0.990       .  S
O2643      C2663   1.284       .  A
O2644      C2665   1.282       .  A
O2645     Zr2655   2.601   1_455  S
O2645      C2664   1.319   1_455  A
O2646     Zr2654   2.444       .  S
O2646      C2665   1.286       .  A
O2647      C2664   1.284       .  A
O2648     Zr2656   2.389       .  S
O2648      C2663   1.275       .  A
O2649     Zr2654   2.387       .  S
O2649     Zr2656   2.365       .  S
O2650     Zr2655   2.421       .  S
O2650     Zr2656   2.416       .  S
O2650      H2685   0.967       .  S
O2651     Zr2654   2.395       .  S
O2651     Zr2671   2.430       .  S
O2651      H2688   0.963       .  S
O2652     Zr2655   2.363       .  S
O2652     Zr2671   2.371       .  S
Zr2653     O2678   2.442   1_545  S
Zr2653     O2672   2.396       .  S
Zr2653     O2680   2.408   1_545  S
Zr2653     O2668   2.379       .  S
Zr2653     O2659   2.364       .  S
Zr2653     O2660   2.407       .  S
Zr2653     O2661   2.373       .  S
Zr2653     O2662   2.381       .  S
Zr2654     O2673   2.435       .  S
Zr2654     O2666   2.439       .  S
Zr2654     O2667   2.436       .  S
Zr2654     O2660   2.409       .  S
Zr2654     O2661   2.391       .  S
Zr2655     O2657   2.434   1_655  S
Zr2655     O2679   2.434   1_655  S
Zr2655     O2681   2.611   1_545  S
Zr2655     O2659   2.367       .  S
Zr2655     O2662   2.405       .  S
Zr2656     O2682   2.435       .  S
Zr2656     O2683   2.438   1_545  S
Zr2656     O2658   2.440       .  S
Zr2656     O2659   2.361       .  S
Zr2656     O2660   2.405       .  S
O2657      H2694   0.990       .  S
O2658      H2689   0.990       .  S
O2658      H2703   0.990       .  S
O2660      H2686   0.962       .  S
O2661     Zr2671   2.344       .  S
O2662     Zr2671   2.409       .  S
O2662      H2687   0.969       .  S
C2663      C3280   1.472       .  S
C2664      C3270   1.522   1_655  S
C2665      C3250   1.483       .  S
O2666      H2702   0.990       .  S
O2667      C2669   1.286       .  A
O2668      C2669   1.275       .  A
C2669      C4113   1.466       .  S
O2670     Zr2671   2.439       .  S
O2670      H2699   0.990       .  S
Zr2671     O2674   2.443       .  S
Zr2671     O2675   2.433       .  S
Zr2671     O2676   2.440       .  S
O2672      C2677   1.277       .  A
O2673      H2690   0.990       .  S
O2673      H2705   0.990       .  S
O2674      H2691   0.990       .  S
O2675      H2695   0.990       .  S
O2675      H2704   0.990       .  S
O2676      C2677   1.284       .  A
C2677      C4053   1.475       .  S
O2678      H2697   0.989       .  S
O2678      H2701   0.992       .  S
O2679      H2693   0.990       .  S
O2679      H2700   0.990       .  S
O2680      C2684   1.275       .  A
O2681      C2684   1.320       .  A
O2682      H2692   0.990   1_545  S
O2683      H2696   0.990       .  S
C2684      C3260   1.533       .  S
Zr2707     O2708   2.444   1_455  S
Zr2707     O2709   2.389       .  S
Zr2707     O2710   2.374       .  S
Zr2707     O2713   2.381       .  S
Zr2707     O2715   2.362       .  S
Zr2707     O2716   2.385       .  S
Zr2707     O2717   2.396   1_455  S
Zr2707     O2718   2.378   1_455  S
O2708      H2764   0.990   1_655  S
O2708      H2772   0.990       .  S
O2709      C2729   1.278       .  A
O2710      C2731   1.275       .  A
O2711     Zr2721   2.635       .  S
O2711      C2730   1.326       .  A
O2712     Zr2720   2.459   1_455  S
O2712      C2731   1.292       .  A
O2713      C2730   1.271   1_455  A
O2714     Zr2722   2.457       .  S
O2714      C2729   1.289       .  A
O2715     Zr2720   2.375   1_455  S
O2715     Zr2722   2.339       .  S
O2716     Zr2721   2.399   1_455  S
O2716     Zr2722   2.396       .  S
O2716      H2751   0.967       .  S
O2717     Zr2720   2.401       .  S
O2717     Zr2737   2.401       .  S
O2717      H2754   0.966       .  S
O2718     Zr2721   2.379       .  S
O2718     Zr2737   2.369       .  S
Zr2719     O2744   2.447       .  S
Zr2719     O2738   2.452       .  S
Zr2719     O2746   2.428       .  S
Zr2719     O2734   2.429       .  S
Zr2719     O2725   2.375       .  S
Zr2719     O2726   2.423       .  S
Zr2719     O2727   2.367       .  S
Zr2719     O2728   2.401       .  S
Zr2720     O2739   2.435       .  S
Zr2720     O2732   2.434       .  S
Zr2720     O2733   2.447       .  S
Zr2720     O2726   2.397       .  S
Zr2720     O2727   2.396       .  S
Zr2721     O2723   2.435       .  S
Zr2721     O2745   2.438   1_655  S
Zr2721     O2747   2.633       .  S
Zr2721     O2725   2.353       .  S
Zr2721     O2728   2.427       .  S
Zr2722     O2748   2.436       .  S
Zr2722     O2749   2.441       .  S
Zr2722     O2724   2.437       .  S
Zr2722     O2725   2.369   1_455  S
Zr2722     O2726   2.441   1_455  S
O2723      H2760   0.990       .  S
O2724      H2755   0.990       .  S
O2724      H2769   0.989       .  S
O2726      H2752   0.970       .  S
O2727     Zr2737   2.377       .  S
O2728     Zr2737   2.417       .  S
O2728      H2753   0.966       .  S
C2729      C3893   1.479       .  S
C2730      C3240   1.534       .  S
C2731      C4043   1.472       .  S
O2732      H2768   0.990   1_655  S
O2733      C2735   1.287       .  A
O2734      C2735   1.282       .  A
C2735      C4083   1.493       .  S
O2736     Zr2737   2.439       .  S
O2736      H2765   0.991       .  S
Zr2737     O2740   2.436       .  S
Zr2737     O2741   2.441       .  S
Zr2737     O2742   2.387       .  S
O2738      C2743   1.286       .  A
O2739      H2756   0.990       .  S
O2739      H2771   0.990       .  S
O2740      H2757   0.989       .  S
O2741      H2761   0.990       .  S
O2741      H2770   0.990       .  S
O2742      C2743   1.273       .  A
C2743      C4093   1.470       .  S
O2744      H2763   0.990       .  S
O2744      H2767   0.990       .  S
O2745      H2759   0.990       .  S
O2745      H2766   0.990       .  S
O2746      C2750   1.282       .  A
O2747      C2750   1.326       .  A
O2748      H2758   0.990       .  S
O2749      H2762   0.990       .  S
C2750      C3263   1.538       .  S
Zr2773     O2774   2.445       .  S
Zr2773     O2775   2.450       .  S
Zr2773     O2776   2.425       .  S
Zr2773     O2779   2.458       .  S
Zr2773     O2781   2.368       .  S
Zr2773     O2782   2.402       .  S
Zr2773     O2783   2.420       .  S
Zr2773     O2784   2.372       .  S
O2774      H2830   0.990       .  S
O2774      H2838   0.990       .  S
O2775      C2795   1.287       .  A
O2776      C2797   1.282       .  A
O2777     Zr2787   2.624   1_655  S
O2777      C2796   1.324   1_655  A
O2778     Zr2786   2.426       .  S
O2778      C2797   1.283       .  A
O2779      C2796   1.288       .  A
O2780     Zr2788   2.381       .  S
O2780      C2795   1.273       .  A
O2781     Zr2786   2.388       .  S
O2781     Zr2788   2.364       .  S
O2782     Zr2787   2.427       .  S
O2782     Zr2788   2.417       .  S
O2782      H2817   0.965       .  S
O2783     Zr2786   2.393       .  S
O2783     Zr2803   2.429       .  S
O2783      H2820   0.965       .  S
O2784     Zr2787   2.362       .  S
O2784     Zr2803   2.364       .  S
Zr2785     O2810   2.440       .  S
Zr2785     O2804   2.376       .  S
Zr2785     O2812   2.395       .  S
Zr2785     O2800   2.407       .  S
Zr2785     O2791   2.381       .  S
Zr2785     O2792   2.396       .  S
Zr2785     O2793   2.358       .  S
Zr2785     O2794   2.387       .  S
Zr2786     O2805   2.434       .  S
Zr2786     O2798   2.442       .  S
Zr2786     O2799   2.440       .  S
Zr2786     O2792   2.402       .  S
Zr2786     O2793   2.374       .  S
Zr2787     O2789   2.440   1_455  S
Zr2787     O2811   2.438   1_455  S
Zr2787     O2813   2.618   1_455  S
Zr2787     O2791   2.378       .  S
Zr2787     O2794   2.406       .  S
Zr2788     O2814   2.436       .  S
Zr2788     O2815   2.430       .  S
Zr2788     O2790   2.438       .  S
Zr2788     O2791   2.356       .  S
Zr2788     O2792   2.402       .  S
O2789      H2826   0.989       .  S
O2790      H2821   0.990       .  S
O2790      H2835   0.990       .  S
O2792      H2818   0.965       .  S
O2793     Zr2803   2.343       .  S
O2794     Zr2803   2.397       .  S
O2794      H2819   0.963       .  S
C2795      C4013   1.469       .  S
C2796      C3243   1.544   1_455  S
C2797      C3913   1.478       .  S
O2798      H2834   0.990       .  S
O2799      C2801   1.286       .  A
O2800      C2801   1.280       .  A
C2801      C3303   1.475       .  S
O2802     Zr2803   2.436       .  S
O2802      H2831   0.990       .  S
Zr2803     O2806   2.438       .  S
Zr2803     O2807   2.436       .  S
Zr2803     O2808   2.436       .  S
O2804      C2809   1.274       .  A
O2805      H2822   0.990       .  S
O2805      H2837   0.990       .  S
O2806      H2823   0.990       .  S
O2807      H2827   0.990       .  S
O2807      H2836   0.990       .  S
O2808      C2809   1.285       .  A
C2809      C3313   1.465       .  S
O2810      H2829   0.990       .  S
O2810      H2833   0.990       .  S
O2811      H2825   0.990       .  S
O2811      H2832   0.989       .  S
O2812      C2816   1.272       .  A
O2813      C2816   1.320   1_655  A
O2814      H2824   0.990       .  S
O2815      H2828   0.990       .  S
C2816      C3230   1.529       .  S
Zr2839     O2840   2.441       .  S
Zr2839     O2841   2.462       .  S
Zr2839     O2842   2.430       .  S
Zr2839     O2845   2.449       .  S
Zr2839     O2847   2.372       .  S
Zr2839     O2848   2.402       .  S
Zr2839     O2849   2.425       .  S
Zr2839     O2850   2.364       .  S
O2840      H2896   0.990       .  S
O2840      H2904   0.991       .  S
O2841      C2861   1.291       .  A
O2842      C2863   1.281       .  A
O2843     Zr2853   2.585       .  S
O2843      C2862   1.316       .  A
O2844     Zr2852   2.468       .  S
O2844      C2863   1.289       .  A
O2845      C2862   1.287       .  A
O2846     Zr2854   2.398       .  S
O2846      C2861   1.277       .  A
O2847     Zr2852   2.385       .  S
O2847     Zr2854   2.359       .  S
O2848     Zr2853   2.425       .  S
O2848     Zr2854   2.416       .  S
O2848      H2883   0.968       .  S
O2849     Zr2852   2.394       .  S
O2849     Zr2869   2.436   1_455  S
O2849      H2886   0.961       .  S
O2850     Zr2853   2.356       .  S
O2850     Zr2869   2.357   1_455  S
Zr2851     O2876   2.441       .  S
Zr2851     O2870   2.386       .  S
Zr2851     O2878   2.401       .  S
Zr2851     O2866   2.375       .  S
Zr2851     O2857   2.361   1_655  S
Zr2851     O2858   2.402   1_655  S
Zr2851     O2859   2.376       .  S
Zr2851     O2860   2.381       .  S
Zr2852     O2871   2.439   1_455  S
Zr2852     O2864   2.435       .  S
Zr2852     O2865   2.451   1_455  S
Zr2852     O2858   2.410       .  S
Zr2852     O2859   2.385   1_455  S
Zr2853     O2855   2.434   1_455  S
Zr2853     O2877   2.435       .  S
Zr2853     O2879   2.596       .  S
Zr2853     O2857   2.370       .  S
Zr2853     O2860   2.398   1_455  S
Zr2854     O2880   2.434       .  S
Zr2854     O2881   2.435       .  S
Zr2854     O2856   2.443       .  S
Zr2854     O2857   2.361       .  S
Zr2854     O2858   2.404       .  S
O2855      H2892   0.990       .  S
O2856      H2887   0.990       .  S
O2856      H2901   0.990       .  S
O2858      H2884   0.971       .  S
O2859     Zr2869   2.346       .  S
O2860     Zr2869   2.406       .  S
O2860      H2885   0.965       .  S
C2861      C3293   1.479       .  S
C2862      C3233   1.525       .  S
C2863      C3333   1.489       .  S
O2864      H2900   0.990       .  S
O2865      C2867   1.290       .  A
O2866      C2867   1.275       .  A
C2867      C3213   1.470       .  S
O2868     Zr2869   2.431       .  S
O2868      H2897   0.990       .  S
Zr2869     O2872   2.436       .  S
Zr2869     O2873   2.436       .  S
Zr2869     O2874   2.436       .  S
O2870      C2875   1.275       .  A
O2871      H2888   0.989       .  S
O2871      H2903   0.990       .  S
O2872      H2889   0.990       .  S
O2873      H2893   0.990       .  S
O2873      H2902   0.990       .  S
O2874      C2875   1.283       .  A
C2875      C3220   1.465       .  S
O2876      H2895   0.992       .  S
O2876      H2899   0.989       .  S
O2877      H2891   0.990       .  S
O2877      H2898   0.990       .  S
O2878      C2882   1.274   1_655  A
O2879      C2882   1.315       .  A
O2880      H2890   0.990       .  S
O2881      H2894   0.990       .  S
C2882      C3273   1.524       .  S
Zr2905     O2906   2.457       .  S
Zr2905     O2907   2.465       .  S
Zr2905     O2908   2.327       .  S
Zr2905     O2911   2.436       .  S
Zr2905     O2914   2.366       .  S
Zr2905     O2915   2.447       .  S
Zr2905     O2916   2.407       .  S
Zr2905     O2913   2.298       .  S
O2906      H2962   0.991       .  S
O2906      H2970   0.991       .  S
O2907      C2927   1.284       .  A
O2908      C2929   1.261       .  A
O2909     Zr2919   2.409       .  S
O2909      C2928   1.279       .  A
O2910     Zr2918   2.696       .  S
O2910      C2929   1.338       .  A
O2911      C2928   1.284       .  A
O2912     Zr2920   2.397       .  S
O2912      C2927   1.270       .  A
O2913     Zr2918   2.312       .  S
O2913     Zr2920   2.316       .  S
O2914     Zr2919   2.378       .  S
O2914     Zr2920   2.357       .  S
O2914      H2949   0.965       .  S
O2915     Zr2918   2.384       .  S
O2915     Zr2935   2.373       .  S
O2915      H2952   0.968       .  S
O2916     Zr2919   2.391       .  S
O2916     Zr2935   2.423       .  S
Zr2917     O2942   2.447       .  S
Zr2917     O2936   2.434       .  S
Zr2917     O2944   2.427       .  S
Zr2917     O2932   2.397       .  S
Zr2917     O2923   2.398       .  S
Zr2917     O2924   2.411       .  S
Zr2917     O2925   2.399       .  S
Zr2917     O2926   2.364       .  S
Zr2918     O2937   2.449       .  S
Zr2918     O2930   2.432       .  S
Zr2918     O2931   2.628       .  S
Zr2918     O2924   2.423       .  S
Zr2918     O2925   2.443       .  S
Zr2919     O2921   2.437       .  S
Zr2919     O2943   2.439       .  S
Zr2919     O2945   2.398       .  S
Zr2919     O2923   2.405       .  S
Zr2919     O2926   2.378       .  S
Zr2920     O2946   2.444       .  S
Zr2920     O2947   2.448       .  S
Zr2920     O2922   2.435       .  S
Zr2920     O2923   2.391       .  S
Zr2920     O2924   2.359       .  S
O2921      H2958   0.990       .  S
O2922      H2953   0.989       .  S
O2922      H2967   0.989       .  S
O2924      H2950   0.965       .  S
O2925     Zr2935   2.391       .  S
O2926     Zr2935   2.360       .  S
O2926      H2951   0.965       .  S
C2927      C4503   1.464       .  S
C2928      C4433   1.476       .  S
C2929      C3200   1.545       .  S
O2930      H2966   0.990       .  S
O2931      C2933   1.325       .  A
O2932      C2933   1.278       .  A
C2933      C3190   1.536       .  S
O2934     Zr2935   2.437       .  S
O2934      H2963   0.990       .  S
Zr2935     O2938   2.436       .  S
Zr2935     O2939   2.438       .  S
Zr2935     O2940   2.417       .  S
O2936      C2941   1.284       .  A
O2937      H2954   0.990       .  S
O2937      H2969   0.990       .  S
O2938      H2955   0.990       .  S
O2939      H2959   0.990       .  S
O2939      H2968   0.990       .  S
O2940      C2941   1.280       .  A
C2941      C3253   1.483       .  S
O2942      H2961   0.991       .  S
O2942      H2965   0.991       .  S
O2943      H2957   0.990       .  S
O2943      H2964   0.990       .  S
O2944      C2948   1.283       .  A
O2945      C2948   1.277       .  A
O2946      H2956   0.990       .  S
O2947      H2960   0.990       .  S
C2948      C3223   1.458       .  S
Zr2971     O2972   2.444       .  S
Zr2971     O2973   2.404       .  S
Zr2971     O2974   2.365       .  S
Zr2971     O2977   2.399       .  S
Zr2971     O2979   2.396       .  S
Zr2971     O2980   2.386       .  S
Zr2971     O2981   2.412       .  S
Zr2971     O2982   2.381       .  S
O2972      H3028   0.990       .  S
O2972      H3036   0.990       .  S
O2973      C2993   1.277       .  A
O2974      C2995   1.266       .  A
O2975     Zr2985   2.465       .  S
O2975      C2994   1.293       .  A
O2976     Zr2984   2.660       .  S
O2976      C2995   1.331       .  A
O2977      C2994   1.279       .  A
O2978     Zr2986   2.429       .  S
O2978      C2993   1.282       .  A
O2979     Zr2984   2.379       .  S
O2979     Zr2986   2.375       .  S
O2980     Zr2985   2.383       .  S
O2980     Zr2986   2.328       .  S
O2980      H3015   0.973       .  S
O2981     Zr2984   2.413       .  S
O2981     Zr3001   2.370       .  S
O2981      H3018   0.969       .  S
O2982     Zr2985   2.395       .  S
O2982     Zr3001   2.401       .  S
Zr2983     O3008   2.456       .  S
Zr2983     O3002   2.449       .  S
Zr2983     O3010   2.398       .  S
Zr2983     O2998   2.408       .  S
Zr2983     O2989   2.413       .  S
Zr2983     O2990   2.420       .  S
Zr2983     O2991   2.391       .  S
Zr2983     O2992   2.381       .  S
Zr2984     O3003   2.434       .  S
Zr2984     O2996   2.433       .  S
Zr2984     O2997   2.635       .  S
Zr2984     O2990   2.414       .  S
Zr2984     O2991   2.436       .  S
Zr2985     O2987   2.437       .  S
Zr2985     O3009   2.447       .  S
Zr2985     O3011   2.448       .  S
Zr2985     O2989   2.409       .  S
Zr2985     O2992   2.385       .  S
Zr2986     O3012   2.437       .  S
Zr2986     O3013   2.436       .  S
Zr2986     O2988   2.441       .  S
Zr2986     O2989   2.401       .  S
Zr2986     O2990   2.359       .  S
O2987      H3024   0.990       .  S
O2988      H3019   0.989       .  S
O2988      H3033   0.990       .  S
O2990      H3016   0.966       .  S
O2991     Zr3001   2.400       .  S
O2992     Zr3001   2.389       .  S
O2992      H3017   0.967       .  S
C2993      C3453   1.444       .  S
C2994      C3403   1.474       .  S
C2995      C3180   1.545       .  S
O2996      H3032   0.990       .  S
O2997      C2999   1.326       .  A
O2998      C2999   1.277       .  A
C2999      C3203   1.547       .  S
O3000     Zr3001   2.438       .  S
O3000      H3029   0.990       .  S
Zr3001     O3004   2.437       .  S
Zr3001     O3005   2.438       .  S
Zr3001     O3006   2.399       .  S
O3002      C3007   1.283       .  A
O3003      H3020   0.990       .  S
O3003      H3035   0.990       .  S
O3004      H3021   0.990       .  S
O3005      H3025   0.990       .  S
O3005      H3034   0.990       .  S
O3006      C3007   1.276       .  A
C3007      C4413   1.477       .  S
O3008      H3027   0.992       .  S
O3008      H3031   0.989       .  S
O3009      H3023   0.991       .  S
O3009      H3030   0.990       .  S
O3010      C3014   1.277       .  A
O3011      C3014   1.283       .  A
O3012      H3022   0.990       .  S
O3013      H3026   0.990       .  S
C3014      C4533   1.467       .  S
Zr3037     O3038   2.446       .  S
Zr3037     O3039   2.461       .  S
Zr3037     O3040   2.411       .  S
Zr3037     O3043   2.446       .  S
Zr3037     O3045   2.399       .  S
Zr3037     O3046   2.372       .  S
Zr3037     O3047   2.432       .  S
Zr3037     O3048   2.391       .  S
O3038      H3094   0.991       .  S
O3038      H3102   0.990       .  S
O3039      C3059   1.288       .  A
O3040      C3061   1.278       .  A
O3041     Zr3051   2.415       .  S
O3041      C3060   1.278       .  A
O3042     Zr3050   2.622       .  S
O3042      C3061   1.323       .  A
O3043      C3060   1.286       .  A
O3044     Zr3052   2.399       .  S
O3044      C3059   1.276       .  A
O3045     Zr3050   2.438       .  S
O3045     Zr3052   2.391       .  S
O3046     Zr3051   2.381       .  S
O3046     Zr3052   2.379       .  S
O3046      H3081   0.965       .  S
O3047     Zr3050   2.418       .  S
O3047     Zr3067   2.393       .  S
O3047      H3084   0.966       .  S
O3048     Zr3051   2.393       .  S
O3048     Zr3067   2.387       .  S
Zr3049     O3074   2.442       .  S
Zr3049     O3068   2.439       .  S
Zr3049     O3076   2.424       .  S
Zr3049     O3064   2.365       .  S
Zr3049     O3055   2.398       .  S
Zr3049     O3056   2.432       .  S
Zr3049     O3057   2.407       .  S
Zr3049     O3058   2.402       .  S
Zr3050     O3069   2.436       .  S
Zr3050     O3062   2.436       .  S
Zr3050     O3063   2.659       .  S
Zr3050     O3056   2.423       .  S
Zr3050     O3057   2.377       .  S
Zr3051     O3053   2.430       .  S
Zr3051     O3075   2.435       .  S
Zr3051     O3077   2.436       .  S
Zr3051     O3055   2.400       .  S
Zr3051     O3058   2.373       .  S
Zr3052     O3078   2.443       .  S
Zr3052     O3079   2.439       .  S
Zr3052     O3054   2.437       .  S
Zr3052     O3055   2.391       .  S
Zr3052     O3056   2.380       .  S
O3053      H3090   0.990       .  S
O3054      H3085   0.990       .  S
O3054      H3099   0.990       .  S
O3056      H3082   0.969       .  S
O3057     Zr3067   2.376       .  S
O3058     Zr3067   2.360       .  S
O3058      H3083   0.959       .  S
C3059      C3370   1.483       .  S
C3060      C3483   1.462       .  S
C3061      C3183   1.561       .  S
O3062      H3098   0.990       .  S
O3063      C3065   1.326       .  A
O3064      C3065   1.260       .  A
C3065      C3170   1.553       .  S
O3066     Zr3067   2.443       .  S
O3066      H3095   0.989       .  S
Zr3067     O3070   2.433       .  S
Zr3067     O3071   2.445       .  S
Zr3067     O3072   2.423       .  S
O3068      C3073   1.278       .  A
O3069      H3086   0.990       .  S
O3069      H3101   0.990       .  S
O3070      H3087   0.990       .  S
O3071      H3091   0.990       .  S
O3071      H3100   0.990       .  S
O3072      C3073   1.274       .  A
C3073      C3730   1.458       .  S
O3074      H3093   0.990       .  S
O3074      H3097   0.990       .  S
O3075      H3089   0.990       .  S
O3075      H3096   0.990       .  S
O3076      C3080   1.279       .  A
O3077      C3080   1.278       .  A
O3078      H3088   0.990       .  S
O3079      H3092   0.990       .  S
C3080      C3813   1.477       .  S
Zr3103     O3104   2.441       .  S
Zr3103     O3105   2.407       .  S
Zr3103     O3106   2.372       .  S
Zr3103     O3109   2.422       .  S
Zr3103     O3111   2.403       .  S
Zr3103     O3112   2.385       .  S
Zr3103     O3113   2.435   1_655  S
Zr3103     O3114   2.389   1_655  S
O3104      H3160   0.991       .  S
O3104      H3168   0.990       .  S
O3105      C3125   1.275       .  A
O3106      C3127   1.265       .  A
O3107     Zr3117   2.422   1_655  S
O3107      C3126   1.281       .  A
O3108     Zr3116   2.630   1_655  S
O3108      C3127   1.321       .  A
O3109      C3126   1.283       .  A
O3110     Zr3118   2.430   1_655  S
O3110      C3125   1.277       .  A
O3111     Zr3116   2.392   1_655  S
O3111     Zr3118   2.372   1_655  S
O3112     Zr3117   2.373   1_655  S
O3112     Zr3118   2.356   1_655  S
O3112      H3147   0.964       .  S
O3113     Zr3116   2.427       .  S
O3113     Zr3133   2.387       .  S
O3113      H3150   0.965   1_455  S
O3114     Zr3117   2.395       .  S
O3114     Zr3133   2.410       .  S
Zr3115     O3140   2.439       .  S
Zr3115     O3134   2.440       .  S
Zr3115     O3142   2.418       .  S
Zr3115     O3130   2.381       .  S
Zr3115     O3121   2.386       .  S
Zr3115     O3122   2.415       .  S
Zr3115     O3123   2.391       .  S
Zr3115     O3124   2.374       .  S
Zr3116     O3135   2.435       .  S
Zr3116     O3128   2.436       .  S
Zr3116     O3129   2.626       .  S
Zr3116     O3122   2.409       .  S
Zr3116     O3123   2.421       .  S
Zr3117     O3119   2.433       .  S
Zr3117     O3141   2.439       .  S
Zr3117     O3143   2.408       .  S
Zr3117     O3121   2.403       .  S
Zr3117     O3124   2.371       .  S
Zr3118     O3144   2.433       .  S
Zr3118     O3145   2.436       .  S
Zr3118     O3120   2.439       .  S
Zr3118     O3121   2.389       .  S
Zr3118     O3122   2.391       .  S
O3119      H3156   0.990       .  S
O3120      H3151   0.989       .  S
O3120      H3165   0.990       .  S
O3122      H3148   0.964       .  S
O3123     Zr3133   2.381       .  S
O3124     Zr3133   2.371       .  S
O3124      H3149   0.965       .  S
C3125      C3210   1.451       .  S
C3126      C3283   1.470       .  S
C3127      C3193   1.545       .  S
O3128      H3164   0.990       .  S
O3129      C3131   1.324       .  A
O3130      C3131   1.274       .  A
C3131      C3173   1.552       .  S
O3132     Zr3133   2.438       .  S
O3132      H3161   0.990   1_455  S
Zr3133     O3136   2.436       .  S
Zr3133     O3137   2.439       .  S
Zr3133     O3138   2.422       .  S
O3134      C3139   1.283       .  A
O3135      H3152   0.990       .  S
O3135      H3167   0.990       .  S
O3136      H3153   0.991       .  S
O3137      H3157   0.990       .  S
O3137      H3166   0.990       .  S
O3138      C3139   1.283       .  A
C3139      C3773   1.475       .  S
O3140      H3159   0.991       .  S
O3140      H3163   0.990       .  S
O3141      H3155   0.990       .  S
O3141      H3162   0.990       .  S
O3142      C3146   1.278       .  A
O3143      C3146   1.277       .  A
O3144      H3154   0.990       .  S
O3145      H3158   0.990       .  S
C3146      C3763   1.450       .  S
C3169      C3170   1.405       .  A
C3169      C3174   1.425       .  A
C3169      H3175   1.078       .  S
C3170      C3171   1.434       .  A
C3171      C3172   1.430       .  A
C3171      H3176   1.082       .  S
C3172      C3173   1.406       .  A
C3172      H3177   1.082       .  S
C3173      C3174   1.432       .  A
C3174      H3178   1.080       .  S
C3179      C3180   1.431       .  A
C3179      C3184   1.436       .  A
C3179      H3185   1.083       .  S
C3180      C3181   1.404       .  A
C3181      C3182   1.424       .  A
C3181      H3186   1.077       .  S
C3182      C3183   1.431       .  A
C3182      H3187   1.080       .  S
C3183      C3184   1.412       .  A
C3184      H3188   1.082       .  S
C3189      C3190   1.403       .  A
C3189      C3194   1.422       .  A
C3189      H3195   1.082       .  S
C3190      C3191   1.428       .  A
C3191      C3192   1.426       .  A
C3191      H3196   1.083       .  S
C3192      C3193   1.407       .  A
C3192      H3197   1.081       .  S
C3193      C3194   1.431       .  A
C3194      H3198   1.082       .  S
C3199      C3200   1.434       .  A
C3199      C3204   1.429       .  A
C3199      H3205   1.083       .  S
C3200      C3201   1.408       .  A
C3201      C3202   1.429       .  A
C3201      H3206   1.083       .  S
C3202      C3203   1.430       .  A
C3202      H3207   1.083       .  S
C3203      C3204   1.406       .  A
C3204      H3208   1.083       .  S
C3209      C3210   1.396       .  A
C3209      C3214   1.392       .  A
C3209      H3215   1.084       .  S
C3210      C3211   1.402       .  A
C3211      C3212   1.387       .  A
C3211      H3216   1.081       .  S
C3212      C3213   1.398       .  A
C3212      H3217   1.083       .  S
C3213      C3214   1.412       .  A
C3214      H3218   1.082       .  S
C3219      C3220   1.406       .  A
C3219      C3224   1.386       .  A
C3219      H3225   1.083       .  S
C3220      C3221   1.403       .  A
C3221      C3222   1.397       .  A
C3221      H3226   1.083       .  S
C3222      C3223   1.403       .  A
C3222      H3227   1.083       .  S
C3223      C3224   1.398       .  A
C3224      H3228   1.084       .  S
C3229      C3230   1.412   1_655  A
C3229      C3234   1.429       .  A
C3229      H3235   1.083       .  S
C3230      C3231   1.416       .  A
C3231      C3232   1.416       .  A
C3231      H3236   1.076       .  S
C3232      C3233   1.404       .  A
C3232      H3237   1.083       .  S
C3233      C3234   1.420   1_455  A
C3234      H3238   1.079       .  S
C3239      C3240   1.411   1_455  A
C3239      C3244   1.423       .  A
C3239      H3245   1.083       .  S
C3240      C3241   1.424       .  A
C3241      C3242   1.434       .  A
C3241      H3246   1.082       .  S
C3242      C3243   1.415       .  A
C3242      H3247   1.083       .  S
C3243      C3244   1.418   1_655  A
C3244      H3248   1.077       .  S
C3249      C3250   1.405       .  A
C3249      C3254   1.401       .  A
C3249      H3255   1.083       .  S
C3250      C3251   1.407       .  A
C3251      C3252   1.394       .  A
C3251      H3256   1.082       .  S
C3252      C3253   1.404       .  A
C3252      H3257   1.083       .  S
C3253      C3254   1.410       .  A
C3254      H3258   1.083       .  S
C3259      C3260   1.413   1_455  A
C3259      C3264   1.430       .  A
C3259      H3265   1.083       .  S
C3260      C3261   1.417       .  A
C3261      C3262   1.425       .  A
C3261      H3266   1.080       .  S
C3262      C3263   1.412       .  A
C3262      H3267   1.083       .  S
C3263      C3264   1.421   1_655  A
C3264      H3268   1.077       .  S
C3269      C3270   1.410       .  A
C3269      C3274   1.421       .  A
C3269      H3275   1.083       .  S
C3270      C3271   1.417       .  A
C3271      C3272   1.424       .  A
C3271      H3276   1.081   1_455  S
C3272      C3273   1.411       .  A
C3272      H3277   1.083   1_455  S
C3273      C3274   1.416       .  A
C3274      H3278   1.081       .  S
C3279      C3280   1.401       .  A
C3279      C3284   1.394       .  A
C3279      H3285   1.084       .  S
C3280      C3281   1.406       .  A
C3281      C3282   1.395       .  A
C3281      H3286   1.083       .  S
C3282      C3283   1.404       .  A
C3282      H3287   1.083       .  S
C3283      C3284   1.409       .  A
C3284      H3288   1.084       .  S
C3289      C3290   1.400       .  A
C3289      C3294   1.399       .  A
C3289      H3295   1.083       .  S
C3290      C3291   1.410       .  A
C3291      C3292   1.396       .  A
C3291      H3296   1.084       .  S
C3292      C3293   1.400       .  A
C3292      H3297   1.082       .  S
C3293      C3294   1.411       .  A
C3294      H3298   1.083       .  S
C3299      C3300   1.405       .  A
C3299      C3304   1.394       .  A
C3299      H3305   1.083       .  S
C3300      C3301   1.397       .  A
C3301      C3302   1.392       .  A
C3301      H3306   1.083       .  S
C3302      C3303   1.409       .  A
C3302      H3307   1.083       .  S
C3303      C3304   1.402       .  A
C3304      H3308   1.083       .  S
C3309      C3310   1.405       .  A
C3309      C3314   1.391       .  A
C3309      H3315   1.083       .  S
C3310      C3311   1.396       .  A
C3311      C3312   1.388       .  A
C3311      H3316   1.084       .  S
C3312      C3313   1.409       .  A
C3312      H3317   1.083       .  S
C3313      C3314   1.400       .  A
C3314      H3318   1.083       .  S
C3319      C3320   1.430       .  A
C3319      C3324   1.423       .  A
C3319      H3325   1.083       .  S
C3320      C3321   1.404       .  A
C3321      C3322   1.427       .  A
C3321      H3326   1.082       .  S
C3322      C3323   1.434       .  A
C3322      H3327   1.083       .  S
C3323      C3324   1.403       .  A
C3324      H3328   1.078       .  S
C3329      C3330   1.412       .  A
C3329      C3334   1.410       .  A
C3329      H3335   1.083       .  S
C3330      C3331   1.408       .  A
C3331      C3332   1.396       .  A
C3331      H3336   1.083       .  S
C3332      C3333   1.406       .  A
C3332      H3337   1.082       .  S
C3333      C3334   1.405       .  A
C3334      H3338   1.083       .  S
C3339      C3340   1.427       .  A
C3339      C3344   1.431       .  A
C3339      H3345   1.083       .  S
C3340      C3341   1.415       .  A
C3341      C3342   1.439       .  A
C3341      H3346   1.082       .  S
C3342      C3343   1.432       .  A
C3342      H3347   1.083       .  S
C3343      C3344   1.412       .  A
C3344      H3348   1.083       .  S
C3349      C3350   1.434       .  A
C3349      C3354   1.431       .  A
C3349      H3355   1.083       .  S
C3350      C3351   1.404       .  A
C3351      C3352   1.425       .  A
C3351      H3356   1.078       .  S
C3352      C3353   1.433       .  A
C3352      H3357   1.082       .  S
C3353      C3354   1.408       .  A
C3354      H3358   1.082       .  S
C3359      C3360   1.407       .  A
C3359      C3364   1.428       .  A
C3359      H3365   1.083       .  S
C3360      C3361   1.428       .  A
C3361      C3362   1.424       .  A
C3361      H3366   1.082       .  S
C3362      C3363   1.404       .  A
C3362      H3367   1.079       .  S
C3363      C3364   1.433       .  A
C3364      H3368   1.083       .  S
C3369      C3370   1.411       .  A
C3369      C3374   1.399       .  A
C3369      H3375   1.083       .  S
C3370      C3371   1.403       .  A
C3371      C3372   1.396       .  A
C3371      H3376   1.083       .  S
C3372      C3373   1.409       .  A
C3372      H3377   1.083       .  S
C3373      C3374   1.403       .  A
C3374      H3378   1.083       .  S
C3379      C3380   1.408       .  A
C3379      C3384   1.392       .  A
C3379      H3385   1.083       .  S
C3380      C3381   1.402       .  A
C3381      C3382   1.387       .  A
C3381      H3386   1.084       .  S
C3382      C3383   1.399       .  A
C3382      H3387   1.081       .  S
C3383      C3384   1.398       .  A
C3384      H3388   1.084       .  S
C3389      C3390   1.403       .  A
C3389      C3394   1.393       .  A
C3389      H3395   1.083       .  S
C3390      C3391   1.410       .  A
C3391      C3392   1.398       .  A
C3391      H3396   1.083       .  S
C3392      C3393   1.401       .  A
C3392      H3397   1.083       .  S
C3393      C3394   1.401       .  A
C3394      H3398   1.084       .  S
C3399      C3400   1.407       .  A
C3399      C3404   1.391       .  A
C3399      H3405   1.083       .  S
C3400      C3401   1.398       .  A
C3401      C3402   1.398       .  A
C3401      H3406   1.084       .  S
C3402      C3403   1.414       .  A
C3402      H3407   1.083       .  S
C3403      C3404   1.400       .  A
C3404      H3408   1.083       .  S
C3409      C3410   1.405       .  A
C3409      C3414   1.400       .  A
C3409      H3415   1.083       .  S
C3410      C3411   1.408       .  A
C3411      C3412   1.397       .  A
C3411      H3416   1.083       .  S
C3412      C3413   1.406       .  A
C3412      H3417   1.083       .  S
C3413      C3414   1.409       .  A
C3414      H3418   1.083       .  S
C3419      C3420   1.410       .  A
C3419      C3424   1.411       .  A
C3419      H3425   1.079       .  S
C3420      C3421   1.416       .  A
C3421      C3422   1.433       .  A
C3421      H3426   1.082       .  S
C3422      C3423   1.420       .  A
C3422      H3427   1.081       .  S
C3423      C3424   1.410       .  A
C3424      H3428   1.083       .  S
C3429      C3430   1.407       .  A
C3429      C3434   1.395       .  A
C3429      H3435   1.083       .  S
C3430      C3431   1.401       .  A
C3431      C3432   1.395       .  A
C3431      H3436   1.084       .  S
C3432      C3433   1.410       .  A
C3432      H3437   1.083       .  S
C3433      C3434   1.405       .  A
C3434      H3438   1.083       .  S
C3439      C3440   1.413       .  A
C3439      C3444   1.410       .  A
C3439      H3445   1.078       .  S
C3440      C3441   1.416       .  A
C3441      C3442   1.435       .  A
C3441      H3446   1.082       .  S
C3442      C3443   1.420       .  A
C3442      H3447   1.079       .  S
C3443      C3444   1.407       .  A
C3444      H3448   1.083       .  S
C3449      C3450   1.413       .  A
C3449      C3454   1.390       .  A
C3449      H3455   1.082       .  S
C3450      C3451   1.398       .  A
C3451      C3452   1.387       .  A
C3451      H3456   1.083       .  S
C3452      C3453   1.402       .  A
C3452      H3457   1.084       .  S
C3453      C3454   1.392       .  A
C3454      H3458   1.084       .  S
C3459      C3460   1.412       .  A
C3459      C3464   1.431       .  A
C3459      H3465   1.083       .  S
C3460      C3461   1.417       .  A
C3461      C3462   1.420       .  A
C3461      H3466   1.076       .  S
C3462      C3463   1.408   1_545  A
C3462      H3467   1.083   1_545  S
C3463      C3464   1.420   1_565  A
C3464      H3468   1.074   1_545  S
C3469      C3470   1.413       .  A
C3469      C3474   1.412       .  A
C3469      H3475   1.079       .  S
C3470      C3471   1.414       .  A
C3471      C3472   1.433       .  A
C3471      H3476   1.082       .  S
C3472      C3473   1.421       .  A
C3472      H3477   1.081       .  S
C3473      C3474   1.407       .  A
C3474      H3478   1.083       .  S
C3479      C3480   1.408       .  A
C3479      C3484   1.396       .  A
C3479      H3485   1.083       .  S
C3480      C3481   1.404       .  A
C3481      C3482   1.395       .  A
C3481      H3486   1.083       .  S
C3482      C3483   1.401       .  A
C3482      H3487   1.083       .  S
C3483      C3484   1.400       .  A
C3484      H3488   1.084       .  S
C3489      C3490   1.406       .  A
C3489      C3494   1.389       .  A
C3489      H3495   1.083       .  S
C3490      C3491   1.408       .  A
C3491      C3492   1.407       .  A
C3491      H3496   1.083       .  S
C3492      C3493   1.408       .  A
C3492      H3497   1.083       .  S
C3493      C3494   1.402       .  A
C3494      H3498   1.084       .  S
C3499      C3500   1.404       .  A
C3499      C3504   1.397       .  A
C3499      H3505   1.083       .  S
C3500      C3501   1.407       .  A
C3501      C3502   1.387       .  A
C3501      H3506   1.083       .  S
C3502      C3503   1.398       .  A
C3502      H3507   1.083       .  S
C3503      C3504   1.405       .  A
C3504      H3508   1.083       .  S
C3509      C3510   1.412       .  A
C3509      C3514   1.420       .  A
C3509      H3515   1.083       .  S
C3510      C3511   1.413       .  A
C3511      C3512   1.417       .  A
C3511      H3516   1.081       .  S
C3512      C3513   1.410       .  A
C3512      H3517   1.083       .  S
C3513      C3514   1.414       .  A
C3514      H3518   1.081       .  S
C3519      C3520   1.407   1_554  A
C3519      C3524   1.427       .  A
C3519      H3525   1.082       .  S
C3520      C3521   1.428       .  A
C3521      C3522   1.420       .  A
C3521      H3526   1.083       .  S
C3522      C3523   1.403       .  A
C3522      H3527   1.083       .  S
C3523      C3524   1.428   1_556  A
C3524      H3528   1.083       .  S
C3529      C3530   1.399       .  A
C3529      C3534   1.398       .  A
C3529      H3535   1.083       .  S
C3530      C3531   1.415       .  A
C3531      C3532   1.389       .  A
C3531      H3536   1.083       .  S
C3532      C3533   1.392       .  A
C3532      H3537   1.083       .  S
C3533      C3534   1.409       .  A
C3534      H3538   1.082       .  S
C3539      C3540   1.417   1_554  A
C3539      C3544   1.426       .  A
C3539      H3545   1.079       .  S
C3540      C3541   1.411       .  A
C3541      C3542   1.421       .  A
C3541      H3546   1.083       .  S
C3542      C3543   1.412       .  A
C3542      H3547   1.073       .  S
C3543      C3544   1.413   1_556  A
C3544      H3548   1.082       .  S
C3549      C3550   1.416       .  A
C3549      C3554   1.416       .  A
C3549      H3555   1.079       .  S
C3550      C3551   1.415       .  A
C3551      C3552   1.433       .  A
C3551      H3556   1.082       .  S
C3552      C3553   1.420       .  A
C3552      H3557   1.080       .  S
C3553      C3554   1.408       .  A
C3554      H3558   1.083       .  S
C3559      C3560   1.407       .  A
C3559      C3564   1.391       .  A
C3559      H3565   1.083       .  S
C3560      C3561   1.408       .  A
C3561      C3562   1.397       .  A
C3561      H3566   1.083       .  S
C3562      C3563   1.399       .  A
C3562      H3567   1.083       .  S
C3563      C3564   1.399       .  A
C3564      H3568   1.084       .  S
C3569      C3570   1.410       .  A
C3569      C3574   1.401       .  A
C3569      H3575   1.082       .  S
C3570      C3571   1.398       .  A
C3571      C3572   1.390       .  A
C3571      H3576   1.082       .  S
C3572      C3573   1.408       .  A
C3572      H3577   1.079       .  S
C3573      C3574   1.403       .  A
C3574      H3578   1.082       .  S
C3579      C3580   1.406       .  A
C3579      C3584   1.397       .  A
C3579      H3585   1.084       .  S
C3580      C3581   1.397       .  A
C3581      C3582   1.395       .  A
C3581      H3586   1.083       .  S
C3582      C3583   1.413       .  A
C3582      H3587   1.083       .  S
C3583      C3584   1.403       .  A
C3584      H3588   1.083       .  S
C3589      C3590   1.409       .  A
C3589      C3594   1.403       .  A
C3589      H3595   1.083       .  S
C3590      C3591   1.404       .  A
C3591      C3592   1.396       .  A
C3591      H3596   1.083       .  S
C3592      C3593   1.405       .  A
C3592      H3597   1.083       .  S
C3593      C3594   1.404       .  A
C3594      H3598   1.083       .  S
C3599      C3600   1.410       .  A
C3599      C3604   1.425       .  A
C3599      H3605   1.083       .  S
C3600      C3601   1.426       .  A
C3601      C3602   1.438       .  A
C3601      H3606   1.080       .  S
C3602      C3603   1.416       .  A
C3602      H3607   1.082       .  S
C3603      C3604   1.426       .  A
C3604      H3608   1.083       .  S
C3609      C3610   1.397       .  A
C3609      C3614   1.387       .  A
C3609      H3615   1.084       .  S
C3610      C3611   1.408       .  A
C3611      C3612   1.398       .  A
C3611      H3616   1.083       .  S
C3612      C3613   1.400       .  A
C3612      H3617   1.083       .  S
C3613      C3614   1.409       .  A
C3614      H3618   1.081       .  S
C3619      C3620   1.402       .  A
C3619      C3624   1.425       .  A
C3619      H3625   1.083       .  S
C3620      C3621   1.429       .  A
C3621      C3622   1.434       .  A
C3621      H3626   1.083       .  S
C3622      C3623   1.413       .  A
C3622      H3627   1.083       .  S
C3623      C3624   1.433       .  A
C3624      H3628   1.079       .  S
C3629      C3630   1.406       .  A
C3629      C3634   1.430       .  A
C3629      H3635   1.082       .  S
C3630      C3631   1.435       .  A
C3631      C3632   1.426       .  A
C3631      H3636   1.080       .  S
C3632      C3633   1.402       .  A
C3632      H3637   1.083       .  S
C3633      C3634   1.430       .  A
C3634      H3638   1.082       .  S
C3639      C3640   1.411       .  A
C3639      C3644   1.433       .  A
C3639      H3645   1.082       .  S
C3640      C3641   1.427       .  A
C3641      C3642   1.425       .  A
C3641      H3646   1.084       .  S
C3642      C3643   1.410       .  A
C3642      H3647   1.083       .  S
C3643      C3644   1.426       .  A
C3644      H3648   1.082       .  S
C3649      C3650   1.411       .  A
C3649      C3654   1.396       .  A
C3649      H3655   1.082       .  S
C3650      C3651   1.403       .  A
C3651      C3652   1.398       .  A
C3651      H3656   1.083       .  S
C3652      C3653   1.405       .  A
C3652      H3657   1.083       .  S
C3653      C3654   1.398       .  A
C3654      H3658   1.084       .  S
C3659      C3660   1.392       .  A
C3659      C3664   1.391       .  A
C3659      H3665   1.068       .  S
C3660      C3661   1.401       .  A
C3661      C3662   1.395       .  A
C3661      H3666   1.082       .  S
C3662      C3663   1.405       .  A
C3662      H3667   1.079       .  S
C3663      C3664   1.400       .  A
C3664      H3668   1.079   1_455  S
C3669      C3670   1.403       .  A
C3669      C3674   1.394       .  A
C3669      H3675   1.078       .  S
C3670      C3671   1.400       .  A
C3671      C3672   1.395       .  A
C3671      H3676   1.083       .  S
C3672      C3673   1.408       .  A
C3672      H3677   1.083       .  S
C3673      C3674   1.404       .  A
C3674      H3678   1.084       .  S
C3679      C3680   1.430       .  A
C3679      C3684   1.429       .  A
C3679      H3685   1.082       .  S
C3680      C3681   1.404   1_655  A
C3681      C3682   1.427       .  A
C3681      H3686   1.083       .  S
C3682      C3683   1.436       .  A
C3682      H3687   1.082       .  S
C3683      C3684   1.408   1_455  A
C3684      H3688   1.082       .  S
C3689      C3690   1.406       .  A
C3689      C3694   1.405       .  A
C3689      H3695   1.083       .  S
C3690      C3691   1.402       .  A
C3691      C3692   1.390       .  A
C3691      H3696   1.083       .  S
C3692      C3693   1.406       .  A
C3692      H3697   1.084       .  S
C3693      C3694   1.406       .  A
C3694      H3698   1.083       .  S
C3699      C3700   1.435   1_455  A
C3699      C3704   1.425       .  A
C3699      H3705   1.083       .  S
C3700      C3701   1.412       .  A
C3701      C3702   1.437       .  A
C3701      H3706   1.082       .  S
C3702      C3703   1.429   1_655  A
C3702      H3707   1.079       .  S
C3703      C3704   1.404       .  A
C3704      H3708   1.083       .  S
C3709      C3710   1.426   1_545  A
C3709      C3714   1.439       .  A
C3709      H3715   1.078       .  S
C3710      C3711   1.411   1_565  A
C3711      C3712   1.428       .  A
C3711      H3716   1.083       .  S
C3712      C3713   1.428       .  A
C3712      H3717   1.083       .  S
C3713      C3714   1.416       .  A
C3714      H3718   1.082       .  S
C3719      C3720   1.430       .  A
C3719      C3724   1.431       .  A
C3719      H3725   1.083       .  S
C3720      C3721   1.409       .  A
C3721      C3722   1.434       .  A
C3721      H3726   1.082       .  S
C3722      C3723   1.432       .  A
C3722      H3727   1.083       .  S
C3723      C3724   1.409       .  A
C3724      H3728   1.081       .  S
C3729      C3730   1.406       .  A
C3729      C3734   1.395       .  A
C3729      H3735   1.082       .  S
C3730      C3731   1.395       .  A
C3731      C3732   1.391       .  A
C3731      H3736   1.084       .  S
C3732      C3733   1.414       .  A
C3732      H3737   1.083       .  S
C3733      C3734   1.398       .  A
C3734      H3738   1.083       .  S
C3739      C3740   1.406       .  A
C3739      C3744   1.413       .  A
C3739      H3745   1.083       .  S
C3740      C3741   1.404       .  A
C3741      C3742   1.391       .  A
C3741      H3746   1.084       .  S
C3742      C3743   1.402       .  A
C3742      H3747   1.083       .  S
C3743      C3744   1.415       .  A
C3744      H3748   1.083       .  S
C3749      C3750   1.397       .  A
C3749      C3754   1.392       .  A
C3749      H3755   1.084       .  S
C3750      C3751   1.406       .  A
C3751      C3752   1.392       .  A
C3751      H3756   1.083       .  S
C3752      C3753   1.400       .  A
C3752      H3757   1.083   1_545  S
C3753      C3754   1.410       .  A
C3754      H3758   1.084       .  S
C3759      C3760   1.404       .  A
C3759      C3764   1.390       .  A
C3759      H3765   1.083       .  S
C3760      C3761   1.407       .  A
C3761      C3762   1.392       .  A
C3761      H3766   1.083       .  S
C3762      C3763   1.399       .  A
C3762      H3767   1.084       .  S
C3763      C3764   1.398       .  A
C3764      H3768   1.084       .  S
C3769      C3770   1.407       .  A
C3769      C3774   1.405       .  A
C3769      H3775   1.083       .  S
C3770      C3771   1.403       .  A
C3771      C3772   1.388       .  A
C3771      H3776   1.083       .  S
C3772      C3773   1.401       .  A
C3772      H3777   1.083       .  S
C3773      C3774   1.409       .  A
C3774      H3778   1.083       .  S
C3779      C3780   1.396       .  A
C3779      C3784   1.385       .  A
C3779      H3785   1.084       .  S
C3780      C3781   1.404       .  A
C3781      C3782   1.395       .  A
C3781      H3786   1.084       .  S
C3782      C3783   1.404       .  A
C3782      H3787   1.083       .  S
C3783      C3784   1.407       .  A
C3784      H3788   1.083       .  S
C3789      C3790   1.415       .  A
C3789      C3794   1.432       .  A
C3789      H3795   1.083       .  S
C3790      C3791   1.412       .  A
C3791      C3792   1.413       .  A
C3791      H3796   1.083       .  S
C3792      C3793   1.411       .  A
C3792      H3797   1.083       .  S
C3793      C3794   1.419       .  A
C3794      H3798   1.082       .  S
C3799      C3800   1.409       .  A
C3799      C3804   1.402       .  A
C3799      H3805   1.083       .  S
C3800      C3801   1.397       .  A
C3801      C3802   1.386       .  A
C3801      H3806   1.083       .  S
C3802      C3803   1.409       .  A
C3802      H3807   1.083       .  S
C3803      C3804   1.404       .  A
C3804      H3808   1.083       .  S
C3809      C3810   1.400       .  A
C3809      C3814   1.394       .  A
C3809      H3815   1.083       .  S
C3810      C3811   1.408       .  A
C3811      C3812   1.398       .  A
C3811      H3816   1.083       .  S
C3812      C3813   1.403       .  A
C3812      H3817   1.083       .  S
C3813      C3814   1.409       .  A
C3814      H3818   1.083       .  S
C3819      C3820   1.411       .  A
C3819      C3824   1.394       .  A
C3819      H3825   1.083       .  S
C3820      C3821   1.399       .  A
C3821      C3822   1.398       .  A
C3821      H3826   1.083       .  S
C3822      C3823   1.410       .  A
C3822      H3827   1.083       .  S
C3823      C3824   1.399       .  A
C3824      H3828   1.084       .  S
C3829      C3830   1.418   1_565  A
C3829      C3834   1.421       .  A
C3829      H3835   1.083       .  S
C3830      C3831   1.410       .  A
C3831      C3832   1.421       .  A
C3831      H3836   1.083       .  S
C3832      C3833   1.417       .  A
C3832      H3837   1.082       .  S
C3833      C3834   1.410   1_545  A
C3834      H3838   1.083       .  S
C3839      C3840   1.400       .  A
C3839      C3844   1.391       .  A
C3839      H3845   1.083       .  S
C3840      C3841   1.406       .  A
C3841      C3842   1.395       .  A
C3841      H3846   1.083       .  S
C3842      C3843   1.401       .  A
C3842      H3847   1.083       .  S
C3843      C3844   1.406       .  A
C3844      H3848   1.083       .  S
C3849      C3850   1.405       .  A
C3849      C3854   1.392       .  A
C3849      H3855   1.084       .  S
C3850      C3851   1.405       .  A
C3851      C3852   1.397       .  A
C3851      H3856   1.083       .  S
C3852      C3853   1.404       .  A
C3852      H3857   1.084       .  S
C3853      C3854   1.399       .  A
C3854      H3858   1.079       .  S
C3859      C3860   1.427       .  A
C3859      C3864   1.412       .  A
C3859      H3865   1.082       .  S
C3860      C3861   1.407       .  A
C3861      C3862   1.427   1_565  A
C3861      H3866   1.082       .  S
C3862      C3863   1.428       .  A
C3862      H3867   1.083       .  S
C3863      C3864   1.398   1_545  A
C3864      H3868   1.083       .  S
C3869      C3870   1.410   1_545  A
C3869      C3874   1.425       .  A
C3869      H3875   1.083       .  S
C3870      C3871   1.413       .  A
C3871      C3872   1.418       .  A
C3871      H3876   1.077       .  S
C3872      C3873   1.408       .  A
C3872      H3877   1.083       .  S
C3873      C3874   1.419   1_565  A
C3874      H3878   1.076       .  S
C3879      C3880   1.396       .  A
C3879      C3884   1.385       .  A
C3879      H3885   1.084       .  S
C3880      C3881   1.404       .  A
C3881      C3882   1.382       .  A
C3881      H3886   1.082       .  S
C3882      C3883   1.396       .  A
C3882      H3887   1.084       .  S
C3883      C3884   1.406       .  A
C3884      H3888   1.083       .  S
C3889      C3890   1.398       .  A
C3889      C3894   1.393       .  A
C3889      H3895   1.084       .  S
C3890      C3891   1.404       .  A
C3891      C3892   1.397       .  A
C3891      H3896   1.083       .  S
C3892      C3893   1.404       .  A
C3892      H3897   1.083       .  S
C3893      C3894   1.411       .  A
C3894      H3898   1.083       .  S
C3899      C3900   1.407       .  A
C3899      C3904   1.388       .  A
C3899      H3905   1.083       .  S
C3900      C3901   1.406       .  A
C3901      C3902   1.394       .  A
C3901      H3906   1.083       .  S
C3902      C3903   1.402       .  A
C3902      H3907   1.083       .  S
C3903      C3904   1.399       .  A
C3904      H3908   1.082       .  S
C3909      C3910   1.406       .  A
C3909      C3914   1.394       .  A
C3909      H3915   1.083       .  S
C3910      C3911   1.404       .  A
C3911      C3912   1.398       .  A
C3911      H3916   1.083       .  S
C3912      C3913   1.405       .  A
C3912      H3917   1.083       .  S
C3913      C3914   1.406       .  A
C3914      H3918   1.083       .  S
C3919      C3920   1.397       .  A
C3919      C3924   1.382       .  A
C3919      H3925   1.084       .  S
C3920      C3921   1.407   1_554  A
C3921      C3922   1.404       .  A
C3921      H3926   1.083       .  S
C3922      C3923   1.406       .  A
C3922      H3927   1.083       .  S
C3923      C3924   1.404   1_556  A
C3924      H3928   1.081       .  S
C3929      C3930   1.413       .  A
C3929      C3934   1.395       .  A
C3929      H3935   1.083       .  S
C3930      C3931   1.400       .  A
C3931      C3932   1.395       .  A
C3931      H3936   1.083       .  S
C3932      C3933   1.410       .  A
C3932      H3937   1.083       .  S
C3933      C3934   1.399       .  A
C3934      H3938   1.083       .  S
C3939      C3940   1.402       .  A
C3939      C3944   1.397       .  A
C3939      H3945   1.083       .  S
C3940      C3941   1.410   1_556  A
C3941      C3942   1.400   1_554  A
C3941      H3946   1.083       .  S
C3942      C3943   1.401       .  A
C3942      H3947   1.083   1_556  S
C3943      C3944   1.408       .  A
C3944      H3948   1.083       .  S
C3949      C3950   1.409       .  A
C3949      C3954   1.431       .  A
C3949      H3955   1.082       .  S
C3950      C3951   1.425   1_554  A
C3951      C3952   1.425       .  A
C3951      H3956   1.083       .  S
C3952      C3953   1.409   1_556  A
C3952      H3957   1.083       .  S
C3953      C3954   1.430       .  A
C3954      H3958   1.083       .  S
C3959      C3960   1.399       .  A
C3959      C3964   1.390       .  A
C3959      H3965   1.084       .  S
C3960      C3961   1.398       .  A
C3961      C3962   1.392       .  A
C3961      H3966   1.084       .  S
C3962      C3963   1.405       .  A
C3962      H3967   1.083       .  S
C3963      C3964   1.403       .  A
C3964      H3968   1.083       .  S
C3969      C3970   1.411       .  A
C3969      C3974   1.402       .  A
C3969      H3975   1.083       .  S
C3970      C3971   1.404       .  A
C3971      C3972   1.392       .  A
C3971      H3976   1.083       .  S
C3972      C3973   1.405       .  A
C3972      H3977   1.080       .  S
C3973      C3974   1.402       .  A
C3974      H3978   1.083       .  S
C3979      C3980   1.402       .  A
C3979      C3984   1.396       .  A
C3979      H3985   1.084       .  S
C3980      C3981   1.399       .  A
C3981      C3982   1.397       .  A
C3981      H3986   1.083       .  S
C3982      C3983   1.409       .  A
C3982      H3987   1.083       .  S
C3983      C3984   1.406       .  A
C3984      H3988   1.083       .  S
C3989      C3990   1.411   1_554  A
C3989      C3994   1.434       .  A
C3989      H3995   1.082       .  S
C3990      C3991   1.428       .  A
C3991      C3992   1.424       .  A
C3991      H3996   1.083       .  S
C3992      C3993   1.407   1_556  A
C3992      H3997   1.083       .  S
C3993      C3994   1.431       .  A
C3994      H3998   1.083       .  S
C3999      C4000   1.405       .  A
C3999      C4004   1.398       .  A
C3999      H4005   1.083       .  S
C4000      C4001   1.409       .  A
C4001      C4002   1.396       .  A
C4001      H4006   1.083       .  S
C4002      C4003   1.403       .  A
C4002      H4007   1.083       .  S
C4003      C4004   1.408       .  A
C4004      H4008   1.083       .  S
C4009      C4010   1.403       .  A
C4009      C4014   1.395       .  A
C4009      H4015   1.083       .  S
C4010      C4011   1.412       .  A
C4011      C4012   1.395       .  A
C4011      H4016   1.083       .  S
C4012      C4013   1.399       .  A
C4012      H4017   1.084       .  S
C4013      C4014   1.406       .  A
C4014      H4018   1.083       .  S
C4019      C4020   1.405   1_554  A
C4019      C4024   1.423       .  A
C4019      H4025   1.078       .  S
C4020      C4021   1.432       .  A
C4021      C4022   1.427       .  A
C4021      H4026   1.083       .  S
C4022      C4023   1.405   1_556  A
C4022      H4027   1.082       .  S
C4023      C4024   1.430       .  A
C4024      H4028   1.083       .  S
C4029      C4030   1.406       .  A
C4029      C4034   1.429       .  A
C4029      H4035   1.082       .  S
C4030      C4031   1.430   1_556  A
C4031      C4032   1.424       .  A
C4031      H4036   1.081       .  S
C4032      C4033   1.405   1_554  A
C4032      H4037   1.078       .  S
C4033      C4034   1.431       .  A
C4034      H4038   1.083       .  S
C4039      C4040   1.402       .  A
C4039      C4044   1.388       .  A
C4039      H4045   1.083       .  S
C4040      C4041   1.397       .  A
C4041      C4042   1.395       .  A
C4041      H4046   1.084       .  S
C4042      C4043   1.414       .  A
C4042      H4047   1.083       .  S
C4043      C4044   1.398       .  A
C4044      H4048   1.083       .  S
C4049      C4050   1.400   1_565  A
C4049      C4054   1.389   1_565  A
C4049      H4055   1.084       .  S
C4050      C4051   1.404       .  A
C4051      C4052   1.400       .  A
C4051      H4056   1.083       .  S
C4052      C4053   1.406       .  A
C4052      H4057   1.083       .  S
C4053      C4054   1.406       .  A
C4054      H4058   1.083   1_545  S
C4059      C4060   1.407       .  A
C4059      C4064   1.391       .  A
C4059      H4065   1.083       .  S
C4060      C4061   1.403       .  A
C4061      C4062   1.396       .  A
C4061      H4066   1.083       .  S
C4062      C4063   1.408       .  A
C4062      H4067   1.083       .  S
C4063      C4064   1.400       .  A
C4064      H4068   1.083       .  S
C4069      C4070   1.411   1_554  A
C4069      C4074   1.409       .  A
C4069      H4075   1.083       .  S
C4070      C4071   1.397       .  A
C4071      C4072   1.397       .  A
C4071      H4076   1.084       .  S
C4072      C4073   1.409   1_556  A
C4072      H4077   1.079       .  S
C4073      C4074   1.402       .  A
C4074      H4078   1.083       .  S
C4079      C4080   1.409       .  A
C4079      C4084   1.401       .  A
C4079      H4085   1.083       .  S
C4080      C4081   1.408       .  A
C4081      C4082   1.405       .  A
C4081      H4086   1.083       .  S
C4082      C4083   1.407       .  A
C4082      H4087   1.083       .  S
C4083      C4084   1.409       .  A
C4084      H4088   1.083       .  S
C4089      C4090   1.409       .  A
C4089      C4094   1.391       .  A
C4089      H4095   1.083       .  S
C4090      C4091   1.403       .  A
C4091      C4092   1.399       .  A
C4091      H4096   1.083       .  S
C4092      C4093   1.407       .  A
C4092      H4097   1.083       .  S
C4093      C4094   1.399       .  A
C4094      H4098   1.084       .  S
C4099      C4100   1.407       .  A
C4099      C4104   1.424       .  A
C4099      H4105   1.079   1_565  S
C4100      C4101   1.433       .  A
C4101      C4102   1.427       .  A
C4101      H4106   1.082       .  S
C4102      C4103   1.404       .  A
C4102      H4107   1.082       .  S
C4103      C4104   1.428       .  A
C4104      H4108   1.082   1_565  S
C4109      C4110   1.403       .  A
C4109      C4114   1.388   1_565  A
C4109      H4115   1.077       .  S
C4110      C4111   1.396       .  A
C4111      C4112   1.389       .  A
C4111      H4116   1.084       .  S
C4112      C4113   1.412   1_565  A
C4112      H4117   1.083       .  S
C4113      C4114   1.396       .  A
C4114      H4118   1.083       .  S
C4119      C4120   1.404       .  A
C4119      C4124   1.402       .  A
C4119      H4125   1.083       .  S
C4120      C4121   1.405       .  A
C4121      C4122   1.395       .  A
C4121      H4126   1.083       .  S
C4122      C4123   1.402       .  A
C4122      H4127   1.083       .  S
C4123      C4124   1.407       .  A
C4124      H4128   1.083       .  S
C4129      C4130   1.435       .  A
C4129      C4134   1.428       .  A
C4129      H4135   1.082       .  S
C4130      C4131   1.406   1_545  A
C4131      C4132   1.427       .  A
C4131      H4136   1.080       .  S
C4132      C4133   1.432       .  A
C4132      H4137   1.083       .  S
C4133      C4134   1.406   1_565  A
C4134      H4138   1.083       .  S
C4139      C4140   1.404       .  A
C4139      C4144   1.395       .  A
C4139      H4145   1.083       .  S
C4140      C4141   1.410       .  A
C4141      C4142   1.399       .  A
C4141      H4146   1.083       .  S
C4142      C4143   1.402       .  A
C4142      H4147   1.083       .  S
C4143      C4144   1.408       .  A
C4144      H4148   1.081       .  S
C4149      C4150   1.411       .  A
C4149      C4154   1.399       .  A
C4149      H4155   1.083       .  S
C4150      C4151   1.396       .  A
C4151      C4152   1.396       .  A
C4151      H4156   1.084       .  S
C4152      C4153   1.415       .  A
C4152      H4157   1.083       .  S
C4153      C4154   1.402       .  A
C4154      H4158   1.083       .  S
C4159      C4160   1.400       .  A
C4159      C4164   1.393       .  A
C4159      H4165   1.083       .  S
C4160      C4161   1.409       .  A
C4161      C4162   1.397       .  A
C4161      H4166   1.083       .  S
C4162      C4163   1.401       .  A
C4162      H4167   1.083       .  S
C4163      C4164   1.407       .  A
C4164      H4168   1.083       .  S
C4169      C4170   1.430   1_545  A
C4169      C4174   1.429       .  A
C4169      H4175   1.083       .  S
C4170      C4171   1.412       .  A
C4171      C4172   1.438       .  A
C4171      H4176   1.082       .  S
C4172      C4173   1.434       .  A
C4172      H4177   1.083       .  S
C4173      C4174   1.409   1_565  A
C4174      H4178   1.083       .  S
C4179      C4180   1.430       .  A
C4179      C4184   1.430       .  A
C4179      H4185   1.083       .  S
C4180      C4181   1.411   1_545  A
C4181      C4182   1.430       .  A
C4181      H4186   1.083       .  S
C4182      C4183   1.427   1_565  A
C4182      H4187   1.083       .  S
C4183      C4184   1.409       .  A
C4184      H4188   1.083       .  S
C4189      C4190   1.401       .  A
C4189      C4194   1.391       .  A
C4189      H4195   1.083       .  S
C4190      C4191   1.416       .  A
C4191      C4192   1.408       .  A
C4191      H4196   1.083       .  S
C4192      C4193   1.403       .  A
C4192      H4197   1.083       .  S
C4193      C4194   1.404       .  A
C4194      H4198   1.079       .  S
C4199      C4200   1.399   1_565  A
C4199      C4204   1.387       .  A
C4199      H4205   1.084       .  S
C4200      C4201   1.396       .  A
C4201      C4202   1.392   1_545  A
C4201      H4206   1.084       .  S
C4202      C4203   1.408       .  A
C4202      H4207   1.083   1_565  S
C4203      C4204   1.401       .  A
C4204      H4208   1.083       .  S
C4209      C4210   1.415       .  A
C4209      C4214   1.402       .  A
C4209      H4215   1.083       .  S
C4210      C4211   1.397       .  A
C4211      C4212   1.391       .  A
C4211      H4216   1.083       .  S
C4212      C4213   1.411       .  A
C4212      H4217   1.084       .  S
C4213      C4214   1.398       .  A
C4214      H4218   1.083       .  S
C4219      C4220   1.398       .  A
C4219      C4224   1.395       .  A
C4219      H4225   1.083       .  S
C4220      C4221   1.415       .  A
C4221      C4222   1.395       .  A
C4221      H4226   1.083       .  S
C4222      C4223   1.396       .  A
C4222      H4227   1.084       .  S
C4223      C4224   1.411       .  A
C4224      H4228   1.083       .  S
C4229      C4230   1.404       .  A
C4229      C4234   1.394       .  A
C4229      H4235   1.083       .  S
C4230      C4231   1.403       .  A
C4231      C4232   1.397       .  A
C4231      H4236   1.083       .  S
C4232      C4233   1.404       .  A
C4232      H4237   1.083       .  S
C4233      C4234   1.401       .  A
C4234      H4238   1.083       .  S
C4239      C4240   1.401       .  A
C4239      C4244   1.396       .  A
C4239      H4245   1.083       .  S
C4240      C4241   1.405       .  A
C4241      C4242   1.389       .  A
C4241      H4246   1.083       .  S
C4242      C4243   1.397       .  A
C4242      H4247   1.084       .  S
C4243      C4244   1.406       .  A
C4244      H4248   1.084       .  S
C4249      C4250   1.406       .  A
C4249      C4254   1.388       .  A
C4249      H4255   1.081       .  S
C4250      C4251   1.405       .  A
C4251      C4252   1.398       .  A
C4251      H4256   1.083       .  S
C4252      C4253   1.404       .  A
C4252      H4257   1.084       .  S
C4253      C4254   1.395       .  A
C4254      H4258   1.084       .  S
C4259      C4260   1.403       .  A
C4259      C4264   1.398       .  A
C4259      H4265   1.083       .  S
C4260      C4261   1.404       .  A
C4261      C4262   1.385       .  A
C4261      H4266   1.083       .  S
C4262      C4263   1.400       .  A
C4262      H4267   1.083       .  S
C4263      C4264   1.407       .  A
C4264      H4268   1.083       .  S
C4269      C4270   1.411       .  A
C4269      C4274   1.417       .  A
C4269      H4275   1.083       .  S
C4270      C4271   1.416       .  A
C4271      C4272   1.423       .  A
C4271      H4276   1.082       .  S
C4272      C4273   1.413       .  A
C4272      H4277   1.083       .  S
C4273      C4274   1.413       .  A
C4274      H4278   1.082       .  S
C4279      C4280   1.400       .  A
C4279      C4284   1.397       .  A
C4279      H4285   1.082       .  S
C4280      C4281   1.408       .  A
C4281      C4282   1.391       .  A
C4281      H4286   1.078       .  S
C4282      C4283   1.397       .  A
C4282      H4287   1.082       .  S
C4283      C4284   1.409       .  A
C4284      H4288   1.083       .  S
C4289      C4290   1.397       .  A
C4289      C4294   1.393       .  A
C4289      H4295   1.083       .  S
C4290      C4291   1.408       .  A
C4291      C4292   1.396       .  A
C4291      H4296   1.083       .  S
C4292      C4293   1.401       .  A
C4292      H4297   1.083       .  S
C4293      C4294   1.411       .  A
C4294      H4298   1.083       .  S
C4299      C4300   1.407       .  A
C4299      C4304   1.392       .  A
C4299      H4305   1.081       .  S
C4300      C4301   1.407       .  A
C4301      C4302   1.403       .  A
C4301      H4306   1.083       .  S
C4302      C4303   1.403       .  A
C4302      H4307   1.083       .  S
C4303      C4304   1.400       .  A
C4304      H4308   1.084       .  S
C4309      C4310   1.405       .  A
C4309      C4314   1.396       .  A
C4309      H4315   1.077       .  S
C4310      C4311   1.396       .  A
C4311      C4312   1.393       .  A
C4311      H4316   1.082       .  S
C4312      C4313   1.412       .  A
C4312      H4317   1.082       .  S
C4313      C4314   1.400       .  A
C4314      H4318   1.083       .  S
C4319      C4320   1.411       .  A
C4319      C4324   1.425       .  A
C4319      H4325   1.083       .  S
C4320      C4321   1.411       .  A
C4321      C4322   1.416       .  A
C4321      H4326   1.080       .  S
C4322      C4323   1.410       .  A
C4322      H4327   1.083       .  S
C4323      C4324   1.416       .  A
C4324      H4328   1.078       .  S
C4329      C4330   1.412       .  A
C4329      C4334   1.398       .  A
C4329      H4335   1.083       .  S
C4330      C4331   1.404       .  A
C4331      C4332   1.393       .  A
C4331      H4336   1.083       .  S
C4332      C4333   1.403       .  A
C4332      H4337   1.083       .  S
C4333      C4334   1.398       .  A
C4334      H4338   1.083       .  S
C4339      C4340   1.408       .  A
C4339      C4344   1.391       .  A
C4339      H4345   1.083       .  S
C4340      C4341   1.405       .  A
C4341      C4342   1.395       .  A
C4341      H4346   1.083       .  S
C4342      C4343   1.399       .  A
C4342      H4347   1.084       .  S
C4343      C4344   1.398       .  A
C4344      H4348   1.084       .  S
C4349      C4350   1.405       .  A
C4349      C4354   1.393       .  A
C4349      H4355   1.083       .  S
C4350      C4351   1.405       .  A
C4351      C4352   1.395       .  A
C4351      H4356   1.083       .  S
C4352      C4353   1.407       .  A
C4352      H4357   1.083       .  S
C4353      C4354   1.404       .  A
C4354      H4358   1.083       .  S
C4359      C4360   1.405   1_455  A
C4359      C4364   1.391       .  A
C4359      H4365   1.083       .  S
C4360      C4361   1.400       .  A
C4361      C4362   1.397   1_655  A
C4361      H4366   1.083       .  S
C4362      C4363   1.410       .  A
C4362      H4367   1.083       .  S
C4363      C4364   1.402       .  A
C4364      H4368   1.083       .  S
C4369      C4370   1.422       .  A
C4369      C4374   1.419   1_655  A
C4369      H4375   1.083       .  S
C4370      C4371   1.411       .  A
C4371      C4372   1.433       .  A
C4371      H4376   1.083       .  S
C4372      C4373   1.426   1_655  A
C4372      H4377   1.079   1_655  S
C4373      C4374   1.408       .  A
C4374      H4378   1.083       .  S
C4379      C4380   1.416       .  A
C4379      C4384   1.435       .  A
C4379      H4385   1.082       .  S
C4380      C4381   1.412       .  A
C4381      C4382   1.406       .  A
C4381      H4386   1.083       .  S
C4382      C4383   1.406       .  A
C4382      H4387   1.084       .  S
C4383      C4384   1.421       .  A
C4384      H4388   1.082       .  S
C4389      C4390   1.399       .  A
C4389      C4394   1.391       .  A
C4389      H4395   1.083       .  S
C4390      C4391   1.403       .  A
C4391      C4392   1.391       .  A
C4391      H4396   1.083       .  S
C4392      C4393   1.405       .  A
C4392      H4397   1.083       .  S
C4393      C4394   1.407       .  A
C4394      H4398   1.083       .  S
C4399      C4400   1.402       .  A
C4399      C4404   1.386       .  A
C4399      H4405   1.084       .  S
C4400      C4401   1.402       .  A
C4401      C4402   1.387       .  A
C4401      H4406   1.083       .  S
C4402      C4403   1.397       .  A
C4402      H4407   1.084       .  S
C4403      C4404   1.400       .  A
C4404      H4408   1.084       .  S
C4409      C4410   1.407       .  A
C4409      C4414   1.395       .  A
C4409      H4415   1.082       .  S
C4410      C4411   1.403       .  A
C4411      C4412   1.396       .  A
C4411      H4416   1.083       .  S
C4412      C4413   1.407       .  A
C4412      H4417   1.083       .  S
C4413      C4414   1.404       .  A
C4414      H4418   1.083       .  S
C4419      C4420   1.399       .  A
C4419      C4424   1.386       .  A
C4419      H4425   1.084       .  S
C4420      C4421   1.408       .  A
C4421      C4422   1.395       .  A
C4421      H4426   1.083       .  S
C4422      C4423   1.402       .  A
C4422      H4427   1.084       .  S
C4423      C4424   1.399       .  A
C4424      H4428   1.075       .  S
C4429      C4430   1.403       .  A
C4429      C4434   1.395       .  A
C4429      H4435   1.083       .  S
C4430      C4431   1.402       .  A
C4431      C4432   1.393       .  A
C4431      H4436   1.084       .  S
C4432      C4433   1.406       .  A
C4432      H4437   1.083       .  S
C4433      C4434   1.408       .  A
C4434      H4438   1.083       .  S
C4439      C4440   1.404       .  A
C4439      C4444   1.390       .  A
C4439      H4445   1.083       .  S
C4440      C4441   1.404       .  A
C4441      C4442   1.391       .  A
C4441      H4446   1.084       .  S
C4442      C4443   1.403       .  A
C4442      H4447   1.083       .  S
C4443      C4444   1.402       .  A
C4444      H4448   1.084       .  S
C4449      C4450   1.410       .  A
C4449      C4454   1.415       .  A
C4449      H4455   1.083       .  S
C4450      C4451   1.407       .  A
C4451      C4452   1.388       .  A
C4451      H4456   1.081       .  S
C4452      C4453   1.406       .  A
C4452      H4457   1.083       .  S
C4453      C4454   1.411       .  A
C4454      H4458   1.083       .  S
C4459      C4460   1.412   1_556  A
C4459      C4464   1.393       .  A
C4459      H4465   1.083       .  S
C4460      C4461   1.401       .  A
C4461      C4462   1.392       .  A
C4461      H4466   1.083       .  S
C4462      C4463   1.404   1_554  A
C4462      H4467   1.082       .  S
C4463      C4464   1.395       .  A
C4464      H4468   1.083       .  S
C4469      C4470   1.419       .  A
C4469      C4474   1.429       .  A
C4469      H4475   1.077       .  S
C4470      C4471   1.412       .  A
C4471      C4472   1.425       .  A
C4471      H4476   1.083       .  S
C4472      C4473   1.417       .  A
C4472      H4477   1.076       .  S
C4473      C4474   1.414       .  A
C4474      H4478   1.083       .  S
C4479      C4480   1.406       .  A
C4479      C4484   1.393       .  A
C4479      H4485   1.083       .  S
C4480      C4481   1.407       .  A
C4481      C4482   1.389       .  A
C4481      H4486   1.083   1_554  S
C4482      C4483   1.399       .  A
C4482      H4487   1.084   1_554  S
C4483      C4484   1.398       .  A
C4484      H4488   1.083       .  S
C4489      C4490   1.403       .  A
C4489      C4494   1.392       .  A
C4489      H4495   1.084       .  S
C4490      C4491   1.399       .  A
C4491      C4492   1.397       .  A
C4491      H4496   1.084       .  S
C4492      C4493   1.411       .  A
C4492      H4497   1.083       .  S
C4493      C4494   1.402       .  A
C4494      H4498   1.083       .  S
C4499      C4500   1.407       .  A
C4499      C4504   1.393       .  A
C4499      H4505   1.075       .  S
C4500      C4501   1.399       .  A
C4501      C4502   1.404       .  A
C4501      H4506   1.083       .  S
C4502      C4503   1.409       .  A
C4502      H4507   1.082       .  S
C4503      C4504   1.394       .  A
C4504      H4508   1.084       .  S
C4509      C4510   1.402       .  A
C4509      C4514   1.403       .  A
C4509      H4515   1.083       .  S
C4510      C4511   1.414       .  A
C4511      C4512   1.401       .  A
C4511      H4516   1.083       .  S
C4512      C4513   1.401       .  A
C4512      H4517   1.082       .  S
C4513      C4514   1.414       .  A
C4514      H4518   1.083       .  S
C4519      C4520   1.407       .  A
C4519      C4524   1.419       .  A
C4519      H4525   1.083       .  S
C4520      C4521   1.427       .  A
C4521      C4522   1.433       .  A
C4521      H4526   1.082       .  S
C4522      C4523   1.412       .  A
C4522      H4527   1.083       .  S
C4523      C4524   1.418       .  A
C4524      H4528   1.083       .  S
C4529      C4530   1.401       .  A
C4529      C4534   1.387       .  A
C4529      H4535   1.082       .  S
C4530      C4531   1.409       .  A
C4531      C4532   1.401       .  A
C4531      H4536   1.083       .  S
C4532      C4533   1.402       .  A
C4532      H4537   1.083       .  S
C4533      C4534   1.403       .  A
C4534      H4538   1.082       .  S
C4539      C4540   1.403       .  A
C4539      C4544   1.402       .  A
C4539      H4545   1.084       .  S
C4540      C4541   1.397       .  A
C4541      C4542   1.394       .  A
C4541      H4546   1.084       .  S
C4542      C4543   1.409       .  A
C4542      H4547   1.083       .  S
C4543      C4544   1.409       .  A
C4544      H4548   1.083       .  S
C4549      C4550   1.407       .  A
C4549      C4554   1.391       .  A
C4549      H4555   1.078       .  S
C4550      C4551   1.404       .  A
C4551      C4552   1.398       .  A
C4551      H4556   1.083       .  S
C4552      C4553   1.402       .  A
C4552      H4557   1.084       .  S
C4553      C4554   1.395       .  A
C4554      H4558   1.084       .  S
C4559      C4560   1.408       .  A
C4559      C4564   1.408       .  A
C4559      H4565   1.083       .  S
C4560      C4561   1.409       .  A
C4561      C4562   1.397       .  A
C4561      H4566   1.083       .  S
C4562      C4563   1.406       .  A
C4562      H4567   1.083       .  S
C4563      C4564   1.410       .  A
C4564      H4568   1.082       .  S
C4569      C4570   1.411       .  A
C4569      C4574   1.415       .  A
C4569      H4575   1.083       .  S
C4570      C4571   1.419       .  A
C4571      C4572   1.430       .  A
C4571      H4576   1.077       .  S
C4572      C4573   1.413       .  A
C4572      H4577   1.082       .  S
C4573      C4574   1.413       .  A
C4574      H4578   1.082       .  S
C4579      C4580   1.415       .  A
C4579      C4584   1.428       .  A
C4579      H4585   1.082       .  S
C4580      C4581   1.418       .  A
C4581      C4582   1.425       .  A
C4581      H4586   1.082       .  S
C4582      C4583   1.416       .  A
C4582      H4587   1.083       .  S
C4583      C4584   1.414       .  A
C4584      H4588   1.078       .  S
C4589      C4590   1.400       .  A
C4589      C4594   1.392       .  A
C4589      H4595   1.084       .  S
C4590      C4591   1.404       .  A
C4591      C4592   1.398       .  A
C4591      H4596   1.083       .  S
C4592      C4593   1.404       .  A
C4592      H4597   1.083       .  S
C4593      C4594   1.410       .  A
C4594      H4598   1.083       .  S
C4599      C4600   1.397       .  A
C4599      C4604   1.388       .  A
C4599      H4605   1.082       .  S
C4600      C4601   1.404       .  A
C4601      C4602   1.393       .  A
C4601      H4606   1.082       .  S
C4602      C4603   1.397       .  A
C4602      H4607   1.080       .  S
C4603      C4604   1.409       .  A
C4604      H4608   1.082       .  S
