geometry optimzed in LAMMPS
_audit_creation_date              2020-11-30 
_audit_creation_method            'lammps2cif' 
_symmetry_space_group_name_H-M    'P1' 
_symmetry_Int_Tables_number       1 
_symmetry_cell_setting            triclinic 
loop_ 
_symmetry_equiv_pos_as_xyz 
  x,y,z 
_cell_length_a                    32.5719032 
_cell_length_b                    32.52617518379388 
_cell_length_c                    32.59378300511995 
_cell_angle_alpha                 89.86163555347309 
_cell_angle_beta                  90.0357316665584 
_cell_angle_gamma                 89.99243127637224 
loop_ 
_atom_site_label 
_atom_site_type_symbol 
_atom_site_fract_x 
_atom_site_fract_y 
_atom_site_fract_z 
_atom_site_charge 
N1          N  0.02838000  0.26467504  0.26109565    -0.03600
C2          C  0.03157393  0.22303160  0.26538379    -0.01000
C3          C  0.04624255  0.20532979  0.22978602    -0.23900
C4          C  0.05008120  0.23615004  0.20166259    -0.24100
C5          C  0.03805872  0.27185266  0.22099886    -0.01200
H6          H  0.05179819  0.17298655  0.22433879     0.12600
H7          H  0.05831039  0.23256939  0.16969518     0.12700
O8          O  0.99879001  0.42359313  0.37727246    -0.86700
O9          O  0.99437569  0.42316670  0.61052272    -0.86800
O10         O  0.05707845  0.37082685  0.49500223    -0.88500
O11         O  0.92623758  0.37680451  0.49567146    -0.87200
O12         O  0.87695850  0.42757394  0.49553092    -0.86800
O13         O  0.10842090  0.41923366  0.49096706    -0.88200
O14         O  0.99055339  0.37340366  0.56088143    -0.86700
O15         O  0.99518523  0.37310320  0.42642198    -0.86300
Zr16       Zr  0.99307143  0.40802506  0.49313072     2.84300
O17         O  0.95243481  0.45089376  0.53347315    -1.08200
O18         O  0.03574522  0.44870324  0.45170274    -1.09000
C19         C  0.99839138  0.38540001  0.38876568     1.06500
C20         C  0.99212300  0.38516101  0.59887717     1.06400
C21         C  0.09496524  0.38168607  0.49265354     1.09400
C22         C  0.88902951  0.38977977  0.49758121     1.07200
H23         H  0.05239412  0.43063854  0.55110488     0.32700
O24         O  0.03600812  0.44845656  0.53393990    -1.29200
H25         H  0.93473167  0.43325262  0.43364657     0.32400
O26         O  0.95205379  0.45007270  0.45087979    -1.30900
O27         O  0.00102402  0.55749601  0.60992098    -0.86700
O28         O  0.99390026  0.55931636  0.37619494    -0.88100
O29         O  0.11134300  0.48762680  0.56094603    -0.86700
O30         O  0.87862669  0.48932805  0.55884437    -0.86800
O31         O  0.87971903  0.49641066  0.42369644    -0.86500
O32         O  0.10997030  0.48921714  0.42303527    -0.86300
O33         O  0.06428644  0.60750753  0.49110427    -0.86700
O34         O  0.93443212  0.61014681  0.49321867    -0.86100
O35         O  0.11369560  0.55718099  0.48988957    -0.87200
O36         O  0.88195101  0.56289147  0.49456130    -0.86300
O37         O  0.05986631  0.48655345  0.60911168    -0.86700
O38         O  0.05877667  0.49273218  0.37461396    -0.86500
O39         O  0.93069549  0.49276554  0.37517704    -0.86100
O40         O  0.92837698  0.48783117  0.60866607    -0.86500
O41         O  0.00283909  0.60778012  0.56034542    -0.86800
O42         O  0.99881529  0.60870161  0.42611352    -0.88200
Zr43       Zr  0.99486581  0.49039305  0.57530136     2.83100
Zr44       Zr  0.99500524  0.49140089  0.41054109     2.83500
Zr45       Zr  0.07925091  0.48903845  0.49243716     2.84100
Zr46       Zr  0.91208016  0.49379226  0.49196899     2.83400
Zr47       Zr  0.99833732  0.57377832  0.49320288     2.84200
O48         O  0.95502094  0.53451268  0.45135998    -1.08700
O49         O  0.03844253  0.53082501  0.53448543    -1.08200
C50         C  0.00379542  0.59549202  0.59813653     1.06400
C51         C  0.99669716  0.59723709  0.38813058     1.09000
C52         C  0.09778309  0.48658038  0.59838987     1.06600
C53         C  0.89066641  0.48729167  0.59659988     1.07000
C54         C  0.89299462  0.49506461  0.38621709     1.06500
C55         C  0.09656560  0.49188349  0.38553453     1.06100
C56         C  0.10185151  0.59542522  0.48962202     1.06500
C57         C  0.89637824  0.60003628  0.49416980     1.06000
H58         H  0.05523898  0.54858257  0.43395354     0.32700
O59         O  0.03824355  0.53160151  0.45134807    -1.29800
H60         H  0.93821039  0.55131731  0.55201526     0.32700
O61         O  0.95456203  0.53389130  0.53448088    -1.31200
N62         N  0.02296745  0.72056575  0.72265844    -0.03600
C63         C  0.03445810  0.71555689  0.76252671    -0.01000
C64         C  0.04587874  0.75270574  0.77963018    -0.23900
C65         C  0.04228854  0.78161575  0.74948929    -0.24100
C66         C  0.02853389  0.76127655  0.71509549    -0.01200
H67         H  0.05412972  0.75846083  0.81127613     0.12600
H68         H  0.04810268  0.81423729  0.75247445     0.12700
N69         N  0.98254263  0.26080247  0.72727657    -0.03600
C70         C  0.97526219  0.21966353  0.72320079    -0.01000
C71         C  0.97539668  0.20032143  0.76100422    -0.23900
C72         C  0.98291038  0.22989626  0.78956164    -0.24100
C73         C  0.98764128  0.26637698  0.76839142    -0.01200
H74         H  0.97222691  0.16772312  0.76699095     0.12600
H75         H  0.98502923  0.22534847  0.82241085     0.12700
N76         N  0.00438283  0.72588976  0.26384320    -0.03600
C77         C  0.00467189  0.72287640  0.22210869    -0.01000
C78         C  0.01184287  0.76046576  0.20372608    -0.26900
C79         C  0.01673015  0.78805155  0.23453928    -0.24100
C80         C  0.01235893  0.76640889  0.27070557    -0.01200
H81         H  0.01342356  0.76696500  0.17117092     0.12600
H82         H  0.02220734  0.82071313  0.23111380     0.12700
O83         O  0.00704590  0.06592155  0.37978816    -0.86700
O84         O  0.99744492  0.06121568  0.61091652    -0.86800
O85         O  0.93871674  0.11381687  0.49497882    -0.88500
O86         O  0.07277975  0.10998624  0.49554954    -0.87200
O87         O  0.12165003  0.05908111  0.49571993    -0.86800
O88         O  0.88760138  0.06529886  0.49248216    -0.88200
O89         O  0.00198217  0.11103461  0.56085816    -0.86700
O90         O  0.00673845  0.11391674  0.43121178    -0.86300
Zr91       Zr  0.00488659  0.07720923  0.49533847     2.84300
O92         O  0.04509660  0.03441511  0.53728789    -1.08200
O93         O  0.96295211  0.03810492  0.45207814    -1.09000
C94         C  0.00805655  0.10351615  0.39326205     1.06500
C95         C  0.99795416  0.09913475  0.59828185     1.06400
C96         C  0.90048484  0.10296939  0.49407418     1.09400
C97         C  0.11042251  0.09727370  0.49533008     1.07200
H98         H  0.94484244  0.05309792  0.55251993     0.32700
O99         O  0.96232438  0.03592274  0.53590322    -1.29200
H100        H  0.06375395  0.05303944  0.43682131     0.32400
O101        O  0.04589857  0.03594886  0.45324731    -1.30900
O102        O  0.00327176  0.92317535  0.60930074    -0.86700
O103        O  0.00766320  0.92779751  0.37816085    -0.88100
O104        O  0.88430911  0.99797919  0.55755384    -0.86700
O105        O  0.11976623  0.98965612  0.55947493    -0.86800
O106        O  0.12073591  0.99190420  0.42957938    -0.86500
O107        O  0.88712232  0.99943601  0.42738124    -0.86300
O108        O  0.93313104  0.87949352  0.49460907    -0.86700
O109        O  0.06745105  0.87568971  0.49089963    -0.86100
O110        O  0.88434244  0.93036273  0.49162254    -0.87200
O111        O  0.11849746  0.92417186  0.49382565    -0.86300
O112        O  0.93268968  0.99067201  0.60857224    -0.86700
O113        O  0.93638562  0.99770698  0.37696392    -0.86500
O114        O  0.07236505  0.99535248  0.37839839    -0.86100
O115        O  0.07094968  0.99132777  0.61033894    -0.86500
O116        O  0.00445517  0.87554086  0.55726115    -0.86800
O117        O  0.00265126  0.87842553  0.42863118    -0.88200
Zr118      Zr  0.00209822  0.99289507  0.57821452     2.83100
Zr119      Zr  0.00409026  0.99628129  0.41028330     2.83500
Zr120      Zr  0.92044764  0.99687527  0.49295263     2.84100
Zr121      Zr  0.08555573  0.99261496  0.49464208     2.83400
Zr122      Zr  0.00116048  0.91232216  0.49339778     2.84200
O123        O  0.04367778  0.95303962  0.45219259    -1.08700
O124        O  0.95981634  0.95349622  0.53517987    -1.08200
C125        C  0.00503886  0.88581721  0.59524694     1.06400
C126        C  0.00629477  0.89011550  0.39124734     1.09000
C127        C  0.89521741  0.99402516  0.59529608     1.06600
C128        C  0.10861616  0.98972316  0.59724569     1.07000
C129        C  0.10984452  0.99352711  0.39165493     1.06500
C130        C  0.89870458  0.99899106  0.38972631     1.06100
C131        C  0.89546071  0.89213171  0.49298802     1.06500
C132        C  0.10574869  0.88643888  0.49203016     1.06000
H133        H  0.94392823  0.93809014  0.43377845     0.32700
O134        O  0.96116587  0.95485903  0.45109024    -1.29800
H135        H  0.06013325  0.93391241  0.55221516     0.32700
O136        O  0.04315837  0.95180358  0.53576641    -1.31200
N137        N  0.23302686  0.22535572  0.48647306    -0.03600
C138        C  0.22647855  0.26658176  0.48290757    -0.01000
C139        C  0.26306569  0.28790866  0.48624887    -0.23900
C140        C  0.29334452  0.25940387  0.49111488    -0.24100
C141        C  0.27434102  0.22159837  0.49139661    -0.01200
H142        H  0.26721456  0.32091956  0.48567852     0.12600
H143        H  0.32590103  0.26545323  0.49391911     0.12700
N144        N  0.77314496  0.22414689  0.52122123    -0.03600
C145        C  0.77778176  0.26184080  0.53838857    -0.01000
C146        C  0.74110597  0.27617360  0.55405555    -0.23900
C147        C  0.71245702  0.24682656  0.54588205    -0.24100
C148        C  0.73253662  0.21593786  0.52493558    -0.01200
H149        H  0.73506575  0.30636304  0.56658233     0.12600
H150        H  0.67989288  0.24886305  0.55218765     0.12700
N151        N  0.77046432  0.76476029  0.49191170    -0.03600
C152        C  0.73053475  0.76933034  0.48028687    -0.01000
C153        C  0.70993167  0.73229808  0.48096515    -0.23900
C154        C  0.73767851  0.70336953  0.49254229    -0.24100
C155        C  0.77435955  0.72360317  0.49915882    -0.01200
H156        H  0.67767778  0.72712797  0.47482820     0.12600
H157        H  0.73204947  0.67063338  0.49469854     0.12700
N158        N  0.23209134  0.75998549  0.48075548    -0.03600
C159        C  0.22950260  0.71837070  0.47345562    -0.01000
C160        C  0.26819297  0.70084518  0.47428319    -0.23900
C161        C  0.29556594  0.73145514  0.48142223    -0.24100
C162        C  0.27332152  0.76722107  0.48572859    -0.01200
H163        H  0.27581063  0.66854414  0.47224834     0.12600
H164        H  0.32850781  0.72789337  0.48414485     0.12700
N165        N  0.73342808  0.01221152  0.26241849    -0.03600
C166        C  0.77498183  0.01458372  0.26733945    -0.01000
C167        C  0.79437751  0.02365531  0.23080033    -0.23900
C168        C  0.76459204  0.02691220  0.20197071    -0.24100
C169        C  0.72767883  0.02079487  0.22186623    -0.01200
H170        H  0.82709300  0.02622469  0.22552202     0.12600
H171        H  0.76946412  0.03174283  0.16946713     0.12700
O172        O  0.43824328  0.11371918  0.49403450    -0.86700
O173        O  0.43174380  0.88115664  0.49695232    -0.86800
O174        O  0.38741539  0.99667213  0.42525808    -0.88500
O175        O  0.38578086  0.99609639  0.56031599    -0.87200
O176        O  0.43531230  0.99905541  0.61037522    -0.86800
O177        O  0.43793975  0.99295122  0.37647605    -0.88200
O178        O  0.38373537  0.93285051  0.49328774    -0.86700
O179        O  0.38829294  0.06357915  0.49287531    -0.86300
Zr180      Zr  0.42080085  0.99719480  0.49344960     2.84300
O181        O  0.46076600  0.95470802  0.53566489    -1.08200
O182        O  0.46365838  0.03788287  0.45243927    -1.09000
C183        C  0.40045849  0.10115815  0.49337569     1.06500
C184        C  0.39421543  0.89474796  0.49555414     1.06400
C185        C  0.39989713  0.99389956  0.38755393     1.09400
C186        C  0.39745693  0.99764371  0.59826470     1.07200
H187        H  0.44370412  0.93727268  0.43596056     0.32700
O188        O  0.46124603  0.95401983  0.45296726    -1.29200
H189        H  0.44593034  0.05652210  0.55211349     0.32400
O190        O  0.46259184  0.03905849  0.53493646    -1.30900
O191        O  0.56956466  0.87844413  0.48945534    -0.86700
O192        O  0.57622183  0.10891957  0.49315257    -0.88100
O193        O  0.50384554  0.92795031  0.37816111    -0.86700
O194        O  0.50172281  0.93100702  0.61165296    -0.86800
O195        O  0.51030054  0.06213606  0.61018182    -0.86500
O196        O  0.50083717  0.05913841  0.37637097    -0.86300
O197        O  0.62004878  0.99612612  0.42658392    -0.86700
O198        O  0.61919905  0.99302389  0.56279358    -0.86100
O199        O  0.57031235  0.99845589  0.37677571    -0.87200
O200        O  0.56907357  0.99300191  0.61232710    -0.86300
O201        O  0.49780643  0.87795074  0.42771888    -0.86700
O202        O  0.50476611  0.11067769  0.42434931    -0.86500
O203        O  0.51146431  0.11321895  0.56143009    -0.86100
O204        O  0.50524048  0.87991592  0.56303669    -0.86500
O205        O  0.61930183  0.92857010  0.49203443    -0.86800
O206        O  0.62277161  0.05616053  0.49391575    -0.88200
Zr207      Zr  0.50146357  0.91148988  0.49480015     2.83100
Zr208      Zr  0.50581749  0.07978040  0.49357181     2.83500
Zr209      Zr  0.50399469  0.99440743  0.41180121     2.84100
Zr210      Zr  0.50273999  0.99632011  0.57660806     2.83400
Zr211      Zr  0.58560113  0.99354300  0.49434772     2.84200
O212        O  0.54554098  0.03664008  0.53532664    -1.08700
O213        O  0.54441502  0.95170690  0.45301966    -1.08200
C214        C  0.60736198  0.89112329  0.48963279     1.06400
C215        C  0.61342078  0.09427016  0.49393803     1.09000
C216        C  0.49975055  0.89032950  0.38997120     1.06600
C217        C  0.50459435  0.89322896  0.60046478     1.07000
C218        C  0.51337278  0.10004370  0.59904692     1.06500
C219        C  0.50195992  0.09711765  0.38699457     1.06100
C220        C  0.60818563  0.99882641  0.38862365     1.06500
C221        C  0.60705206  0.99234600  0.60075581     1.06000
H222        H  0.56317042  0.05300094  0.43529121     0.32700
O223        O  0.54577068  0.03630206  0.45257068    -1.29800
H224        H  0.56062714  0.93597250  0.55301773     0.32700
O225        O  0.54344921  0.95306138  0.53594455    -1.31200
N226        N  0.27353750  0.00825454  0.72502396    -0.03600
C227        C  0.28034730  0.01395033  0.76581712    -0.01000
C228        C  0.24425449  0.02144025  0.78645821    -0.23900
C229        C  0.21363319  0.01944749  0.75795028    -0.24100
C230        C  0.23192116  0.01066509  0.72063662    -0.01200
H231        H  0.24048820  0.02569019  0.81917013     0.12600
H232        H  0.18108168  0.02203905  0.76412165     0.12700
N233        N  0.73273956  0.97500372  0.72581898    -0.03600
C234        C  0.77409836  0.97822407  0.72052345    -0.01000
C235        C  0.79451004  0.97574625  0.75758637    -0.23900
C236        C  0.76537073  0.96986216  0.78691379    -0.24100
C237        C  0.72799996  0.96917353  0.76694547    -0.01200
H238        H  0.82734607  0.97725068  0.76252605     0.12600
H239        H  0.77066114  0.96749129  0.81962967     0.12700
N240        N  0.27378550  0.97920202  0.26220610    -0.03600
C241        C  0.27942265  0.96674049  0.22264430    -0.01000
C242        C  0.24277136  0.95620978  0.20423865    -0.23900
C243        C  0.21306090  0.96167015  0.23287188    -0.24100
C244        C  0.23235363  0.97558644  0.26788353    -0.01200
H245        H  0.23802840  0.94707727  0.17267274     0.12600
H246        H  0.18048276  0.95668091  0.22854776     0.12700
O247        O  0.61707414  0.99634056  0.06617344    -0.86700
O248        O  0.38703575  0.98932851  0.06071815    -0.86800
O249        O  0.50323495  0.05999618  0.11347646    -0.88500
O250        O  0.49530932  0.92714018  0.11341174    -0.87200
O251        O  0.50045230  0.87697163  0.06431407    -0.86800
O252        O  0.50063653  0.11003195  0.06381418    -0.88200
O253        O  0.43640870  0.99473287  0.11089905    -0.86700
O254        O  0.56583343  0.99084443  0.11442048    -0.86300
Zr255      Zr  0.50197354  0.99342533  0.07793246     2.84300
O256        O  0.46197897  0.95157516  0.03566236    -1.08200
O257        O  0.54436893  0.03508014  0.03768514    -1.09000
C258        C  0.60348649  0.99429286  0.10340006     1.06500
C259        C  0.39920085  0.99119122  0.09857288     1.06400
C260        C  0.50155969  0.09800861  0.10177841     1.09400
C261        C  0.49629385  0.88908107  0.10205387     1.07200
H262        H  0.44306413  0.05173648  0.05280263     0.32700
O263        O  0.46067525  0.03481371  0.03603760    -1.29200
H264        H  0.56154047  0.93503540  0.05634217     0.32400
O265        O  0.54533296  0.95209968  0.03830124    -1.30900
O266        O  0.39040914  0.99259386  0.92401711    -0.86700
O267        O  0.62141075  0.98785721  0.92975310    -0.88100
O268        O  0.43689265  0.11053183  0.99338668    -0.86700
O269        O  0.44022262  0.87481286  0.99513579    -0.86800
O270        O  0.57150489  0.87690269  0.99907146    -0.86500
O271        O  0.56803529  0.11087559  0.00245934    -0.86300
O272        O  0.50973982  0.06233152  0.87927956    -0.86700
O273        O  0.51052692  0.92783474  0.87853146    -0.86100
O274        O  0.51044312  0.11199630  0.92921144    -0.87200
O275        O  0.50793215  0.87727315  0.92782786    -0.86300
O276        O  0.38744779  0.06018087  0.99219512    -0.86700
O277        O  0.61959717  0.06266523  0.99952898    -0.86500
O278        O  0.62136501  0.92684261  0.00359103    -0.86100
O279        O  0.38973032  0.92417378  0.99117372    -0.86500
O280        O  0.44249015  0.99328418  0.87637710    -0.86800
O281        O  0.57160534  0.99221772  0.87993400    -0.88200
Zr282      Zr  0.42090524  0.99269247  0.99324141     2.83100
Zr283      Zr  0.58768972  0.99399929  0.99735974     2.83500
Zr284      Zr  0.50317832  0.07669586  0.99592853     2.84100
Zr285      Zr  0.50518475  0.91033249  0.99593623     2.83400
Zr286      Zr  0.50636093  0.99451659  0.91337343     2.84200
O287        O  0.54703429  0.95251567  0.95534324    -1.08700
O288        O  0.46275647  0.03554141  0.95299324    -1.08200
C289        C  0.40446881  0.99314356  0.88679770     1.06400
C290        C  0.60890427  0.98841143  0.89193063     1.09000
C291        C  0.39930000  0.09818489  0.99195969     1.06600
C292        C  0.40258056  0.88649579  0.99247314     1.07000
C293        C  0.60890908  0.88904494  0.00322807     1.06500
C294        C  0.60596754  0.10004757  0.00241936     1.06100
C295        C  0.51216983  0.10024222  0.89124976     1.06500
C296        C  0.51001527  0.88971966  0.89002431     1.06000
H297        H  0.56473658  0.05320277  0.93891514     0.32700
O298        O  0.54696794  0.03610970  0.95545643    -1.29800
H299        H  0.44822776  0.93445839  0.93533981     0.32700
O300        O  0.46437742  0.95175791  0.95319550    -1.31200
N301        N  0.48408640  0.22630881  0.22474958    -0.03600
C302        C  0.49072639  0.22353890  0.26604693    -0.01000
C303        C  0.48348838  0.26065020  0.28521236    -0.23900
C304        C  0.47338814  0.28798688  0.25528192    -0.24100
C305        C  0.47451247  0.26678367  0.21870087    -0.01200
H306        H  0.48542442  0.26711731  0.31772028     0.12600
H307        H  0.46765876  0.32050070  0.25944822     0.12700
N308        N  0.47845548  0.76235950  0.22702325    -0.03600
C309        C  0.47911741  0.72112162  0.21931085    -0.01000
C310        C  0.47485270  0.69861172  0.25490840    -0.23900
C311        C  0.47223938  0.72617413  0.28607644    -0.24100
C312        C  0.47410271  0.76497032  0.26868642    -0.01200
H313        H  0.47545176  0.66546018  0.25793305     0.12600
H314        H  0.47110644  0.71861551  0.31841259     0.12700
N315        N  0.52040882  0.76560576  0.76259531    -0.03600
C316        C  0.51526309  0.72432100  0.76783019    -0.01000
C317        C  0.52369764  0.70318587  0.73219476    -0.23900
C318        C  0.53270449  0.73188132  0.70319340    -0.24100
C319        C  0.53019971  0.76980522  0.72207177    -0.01200
H320        H  0.52228169  0.67026209  0.72760265     0.12600
H321        H  0.53782639  0.72582773  0.67096138     0.12700
N322        N  0.53513932  0.22357418  0.76433833    -0.03600
C323        C  0.55411522  0.21429362  0.72826015    -0.01000
C324        C  0.57725297  0.24699438  0.71447667    -0.23900
C325        C  0.57202442  0.27799391  0.74212315    -0.24100
C326        C  0.54468873  0.26388426  0.77141497    -0.01200
H327        H  0.59328268  0.24926055  0.68547836     0.12600
H328        H  0.58452639  0.30870491  0.73943536     0.12700
O329        O  0.00539271  0.38292448  0.06366988    -0.86700
O330        O  0.99362939  0.61344077  0.06046581    -0.86800
O331        O  0.06398763  0.49943358  0.11061126    -0.88500
O332        O  0.92843704  0.49908009  0.11147811    -0.87200
O333        O  0.87853996  0.49576178  0.06183499    -0.86800
O334        O  0.11328844  0.50077589  0.06028083    -0.88200
O335        O  0.99619385  0.56306377  0.10998083    -0.86700
O336        O  0.00035938  0.43334364  0.11282481    -0.86300
Zr337      Zr  0.99606589  0.49749532  0.07666690     2.84300
O338        O  0.95376757  0.53768641  0.03477887    -1.08200
O339        O  0.03728070  0.45556636  0.03527968    -1.09000
C340        C  0.00563476  0.39603288  0.10125059     1.06500
C341        C  0.99484628  0.60069312  0.09812650     1.06400
C342        C  0.10185958  0.50130810  0.09842968     1.09400
C343        C  0.89032746  0.49787022  0.09980539     1.07200
H344        H  0.05414016  0.55647704  0.05120327     0.32700
O345        O  0.03695242  0.53904904  0.03450634    -1.29200
H346        H  0.93854543  0.43764576  0.05476415     0.32400
O347        O  0.95488331  0.45442842  0.03656122    -1.30900
O348        O  0.99858935  0.61238545  0.92538792    -0.86700
O349        O  0.99444483  0.38021999  0.92614644    -0.88100
O350        O  0.11245100  0.56233979  0.99019048    -0.86700
O351        O  0.87776123  0.55886887  0.99533117    -0.86800
O352        O  0.87938227  0.42870011  0.99918145    -0.86500
O353        O  0.11174486  0.43022815  0.99376013    -0.86300
O354        O  0.06067484  0.49681433  0.87559513    -0.86700
O355        O  0.92619511  0.49570133  0.87636097    -0.86100
O356        O  0.11094631  0.49938824  0.92498797    -0.87200
O357        O  0.87755453  0.49191486  0.92698091    -0.86300
O358        O  0.06306668  0.61273179  0.99245282    -0.86700
O359        O  0.06261892  0.37974635  0.99273088    -0.86500
O360        O  0.92930842  0.37873734  0.00216357    -0.86100
O361        O  0.92547067  0.61103350  0.99400587    -0.86500
O362        O  0.99509763  0.56149541  0.87659242    -0.86800
O363        O  0.99234102  0.43069300  0.87660817    -0.88200
Zr364      Zr  0.99449815  0.58000146  0.99306634     2.83100
Zr365      Zr  0.99593541  0.41288491  0.99463301     2.83500
Zr366      Zr  0.07806677  0.49686773  0.99307352     2.84100
Zr367      Zr  0.91275470  0.49458205  0.99425265     2.83400
Zr368      Zr  0.99370518  0.49594214  0.91095158     2.84200
O369        O  0.95340201  0.45303207  0.95250382    -1.08700
O370        O  0.03538991  0.53767947  0.95192472    -1.08200
C371        C  0.99850988  0.59912724  0.88799258     1.06400
C372        C  0.99294419  0.39296988  0.88836115     1.09000
C373        C  0.10090414  0.60015072  0.99096191     1.06600
C374        C  0.88826236  0.59685089  0.99568148     1.07000
C375        C  0.89163531  0.39134391  0.00321205     1.06500
C376        C  0.10018280  0.39227482  0.99333389     1.06100
C377        C  0.09873793  0.49876187  0.88711143     1.06500
C378        C  0.88844812  0.49284626  0.88867807     1.06000
H379        H  0.05346068  0.43795395  0.93474297     0.32700
O380        O  0.03640528  0.45483093  0.95211330    -1.29800
H381        H  0.93495672  0.55441191  0.93511715     0.32700
O382        O  0.95248799  0.53770008  0.95224900    -1.31200
N383        N  0.76201911  0.49082201  0.22482220    -0.03600
C384        C  0.76782130  0.49424525  0.26608150    -0.01000
C385        C  0.73178316  0.48831635  0.28752095    -0.23900
C386        C  0.70192859  0.48207547  0.25912002    -0.24100
C387        C  0.72068820  0.48419750  0.22122734    -0.01200
H388        H  0.72775444  0.48880087  0.32048910     0.12600
H389        H  0.66953048  0.47790026  0.26526942     0.12700
N390        N  0.22770110  0.51361429  0.22518553    -0.03600
C391        C  0.26805195  0.52402217  0.22014584    -0.01000
C392        C  0.28777455  0.52656163  0.25766935    -0.23900
C393        C  0.25921800  0.51908185  0.28695150    -0.24100
C394        C  0.22314635  0.51020298  0.26671138    -0.01200
H395        H  0.32019365  0.53097702  0.26335160     0.12600
H396        H  0.26451665  0.51867211  0.31974873     0.12700
N397        N  0.22491811  0.51654682  0.76199640    -0.03600
C398        C  0.26505885  0.52837399  0.76623511    -0.01000
C399        C  0.28271353  0.53564727  0.72838019    -0.23900
C400        C  0.25343212  0.52823284  0.69971278    -0.24100
C401        C  0.21864896  0.51586555  0.72052693    -0.01200
H402        H  0.31455693  0.54266239  0.72200482     0.12600
H403        H  0.25768043  0.52954091  0.66678893     0.12700
N404        N  0.76258129  0.47597009  0.76152212    -0.03600
C405        C  0.76652414  0.46794448  0.72045482    -0.01000
C406        C  0.72964641  0.45530325  0.70360179    -0.23900
C407        C  0.70159639  0.45535545  0.73430080    -0.24100
C408        C  0.72211885  0.46795692  0.76897410    -0.01200
H409        H  0.72362632  0.44796704  0.67177231     0.12600
H410        H  0.66929251  0.44798087  0.73160015     0.12700
N411        N  0.26461733  0.26038356  0.98661848    -0.03600
C412        C  0.22298298  0.26552365  0.98266734    -0.01000
C413        C  0.20387357  0.22796663  0.97712788    -0.23900
C414        C  0.23328828  0.19875696  0.97896529    -0.24100
C415        C  0.27040413  0.21876670  0.98379136    -0.01200
H416        H  0.17132526  0.22219995  0.97355116     0.12600
H417        H  0.22807750  0.16597918  0.97649826     0.12700
O418        O  0.48174980  0.42501163  0.10676558    -0.86700
O419        O  0.49631475  0.42602835  0.87529287    -0.86800
O420        O  0.42782595  0.37565032  0.98666374    -0.88500
O421        O  0.56132226  0.37543515  0.99594959    -0.87200
O422        O  0.61075810  0.42546795  0.00011704    -0.86800
O423        O  0.37760450  0.42504324  0.98999953    -0.88200
O424        O  0.49841272  0.37775449  0.92626916    -0.86700
O425        O  0.48588912  0.37636958  0.05574908    -0.86300
Zr426      Zr  0.49411793  0.41117330  0.99146237     2.84300
O427        O  0.53619458  0.45288991  0.95123795    -1.08200
O428        O  0.45144065  0.45190013  0.03258870    -1.09000
C429        C  0.48127495  0.38757138  0.09318877     1.06500
C430        C  0.49812443  0.38823994  0.88838387     1.06400
C431        C  0.38981163  0.38714822  0.98766247     1.09400
C432        C  0.59920192  0.38732866  0.99964472     1.07200
H433        H  0.43644079  0.43541827  0.93102428     0.32700
O434        O  0.45320531  0.45238627  0.94861595    -1.29200
H435        H  0.54983347  0.43400918  0.05323990     0.32400
O436        O  0.53379221  0.45164464  0.03556944    -1.30900
O437        O  0.49823604  0.56429766  0.87720981    -0.86700
O438        O  0.49372273  0.56241178  0.10809777    -0.88100
O439        O  0.37772921  0.49604134  0.92425473    -0.86700
O440        O  0.61214015  0.48852517  0.93027461    -0.86800
O441        O  0.60836622  0.49424392  0.06167634    -0.86500
O442        O  0.37387854  0.49539893  0.05411144    -0.86300
O443        O  0.42730606  0.61009455  0.98917147    -0.86700
O444        O  0.56241993  0.60925622  0.99947412    -0.86100
O445        O  0.37689160  0.56074506  0.98976583    -0.87200
O446        O  0.61243876  0.55963683  0.99713339    -0.86300
O447        O  0.42784267  0.49985793  0.87468440    -0.86700
O448        O  0.42200330  0.49903141  0.10555965    -0.86500
O449        O  0.55786991  0.49038462  0.11094006    -0.86100
O450        O  0.56434235  0.49037981  0.87814121    -0.86500
O451        O  0.49886618  0.61228196  0.92886021    -0.86800
O452        O  0.49268279  0.61132809  0.05705751    -0.88200
Zr453      Zr  0.49564011  0.49460801  0.90826838     2.83100
Zr454      Zr  0.49106089  0.49352026  0.07598531     2.83500
Zr455      Zr  0.41104350  0.49325863  0.99013551     2.84100
Zr456      Zr  0.57661526  0.49296416  0.99496192     2.83400
Zr457      Zr  0.49473967  0.57592101  0.99263471     2.84200
O458        O  0.53437306  0.53436253  0.03556884    -1.08700
O459        O  0.45365403  0.53527524  0.94996762    -1.08200
C460        C  0.49959371  0.60179374  0.89096081     1.06400
C461        C  0.49326639  0.60012586  0.09484160     1.09000
C462        C  0.38989920  0.49956303  0.88690741     1.06600
C463        C  0.60139842  0.48788576  0.89229774     1.07000
C464        C  0.59579765  0.49189794  0.09897801     1.06500
C465        C  0.38460036  0.49902237  0.09191285     1.06100
C466        C  0.38918552  0.59861125  0.98911585     1.06500
C467        C  0.60044700  0.59750901  0.99990938     1.06000
H468        H  0.43401832  0.55280548  0.04886748     0.32700
O469        O  0.45137918  0.53505112  0.03272017    -1.29800
H470        H  0.55530752  0.55216941  0.93540152     0.32700
O471        O  0.53718973  0.53504652  0.95153802    -1.31200
N472        N  0.72526641  0.72138153  0.03125274    -0.03600
C473        C  0.72127000  0.76082201  0.04483174    -0.01000
C474        C  0.75882721  0.77657755  0.05687715    -0.23900
C475        C  0.78725585  0.74677507  0.04984658    -0.24100
C476        C  0.76626060  0.71384295  0.03361715    -0.01200
H477        H  0.76546054  0.80782669  0.06610026     0.12600
H478        H  0.82014857  0.74959050  0.05375526     0.12700
N479        N  0.26736850  0.72857737  0.97659805    -0.03600
C480        C  0.27367040  0.76975476  0.97074459    -0.01000
C481        C  0.23687955  0.79049626  0.96719370    -0.23900
C482        C  0.20662433  0.76198360  0.97064976    -0.24100
C483        C  0.22551076  0.72445851  0.97697649    -0.01200
H484        H  0.23250774  0.82333544  0.96390808     0.12600
H485        H  0.17396278  0.76812381  0.96991180     0.12700
N486        N  0.72818024  0.26678685  0.03013615    -0.03600
C487        C  0.76821115  0.27362948  0.04013157    -0.01000
C488        C  0.78776159  0.23756634  0.05105304    -0.23900
C489        C  0.75972064  0.20689422  0.04644911    -0.24100
C490        C  0.72391088  0.22526713  0.03312655    -0.01200
H491        H  0.81998235  0.23365025  0.05825499     0.12600
H492        H  0.76535610  0.17429972  0.05023080     0.12700
C493        C  0.65843302  0.35957773  0.04009750    -0.09300
C494        C  0.63206888  0.35542779  0.00617462     0.06900
C495        C  0.63775276  0.32085147  0.98044383    -0.03100
C496        C  0.67005471  0.29287047  0.98778527    -0.07500
C497        C  0.69641113  0.29724372  0.02167076     0.06000
C498        C  0.68912078  0.33035862  0.04870607    -0.02600
Br499      Br  0.71581451  0.33377169  0.10092997    -0.02300
H500        H  0.65389899  0.38482127  0.06123076     0.09900
H501        H  0.67437809  0.26727408  0.96706791     0.07900
Br502      Br  0.60289570  0.30992470  0.93465970    -0.02700
C503        C  0.36043179  0.66157816  0.95616266    -0.09300
C504        C  0.35737190  0.63168374  0.98706882     0.06900
C505        C  0.32371752  0.63381610  0.01438595    -0.03100
C506        C  0.29533798  0.66647759  0.01157746    -0.07500
C507        C  0.29840132  0.69648963  0.98049443     0.06000
C508        C  0.33082550  0.69264032  0.95178888    -0.02600
Br509      Br  0.33303932  0.72411997  0.90212931    -0.02300
H510        H  0.38497988  0.65948076  0.93383011     0.09900
H511        H  0.27036916  0.66808553  0.03341376     0.07900
Br512      Br  0.31521412  0.59320257  0.05626263    -0.02700
C513        C  0.63029663  0.65463971  0.04119943    -0.09300
C514        C  0.63240185  0.63002167  0.00599479     0.06900
C515        C  0.66514063  0.63669821  0.97833005    -0.03100
C516        C  0.69473245  0.66746232  0.98624066    -0.07500
C517        C  0.69281740  0.69192118  0.02185868     0.06000
C518        C  0.66015688  0.68462516  0.04960815    -0.02600
Br519      Br  0.65660598  0.71126053  0.10181164    -0.02300
H520        H  0.60589076  0.64949675  0.06320432     0.09900
H521        H  0.71938444  0.67226039  0.96449713     0.07900
Br522      Br  0.66968157  0.60567958  0.92859021    -0.02700
C523        C  0.32593452  0.29341882  0.95637034    -0.09300
C524        C  0.29624613  0.29184887  0.98770738     0.06900
C525        C  0.29798423  0.32176543  0.01902963    -0.03100
C526        C  0.32874747  0.35207643  0.01846680    -0.07500
C527        C  0.35777467  0.35427331  0.98674399     0.06000
C528        C  0.35595010  0.32453647  0.95531270    -0.02600
Br529      Br  0.39143014  0.32714222  0.90851405    -0.02300
H530        H  0.32472464  0.27115184  0.93175713     0.09900
H531        H  0.33069861  0.37350904  0.04354883     0.07900
Br532      Br  0.26113388  0.32106327  0.06485424    -0.02700
C533        C  0.65385508  0.51778035  0.84658707    -0.09300
C534        C  0.63471854  0.48293248  0.86297310     0.06900
C535        C  0.64862405  0.44355792  0.85230141    -0.03100
C536        C  0.68108125  0.43937636  0.82488245    -0.07500
C537        C  0.69944501  0.47412018  0.80721254     0.06000
C538        C  0.68572739  0.51360295  0.81823704    -0.02600
Br539      Br  0.70573336  0.56215048  0.79148373    -0.02300
H540        H  0.64289548  0.54815420  0.85462039     0.09900
H541        H  0.69012525  0.40888421  0.81502043     0.07900
Br542      Br  0.62180933  0.39485161  0.87145939    -0.02700
C543        C  0.29158643  0.48792125  0.82546538    -0.09300
C544        C  0.29144729  0.52482027  0.80310126     0.06900
C545        C  0.32342113  0.55355841  0.80970421    -0.03100
C546        C  0.35610505  0.54377252  0.83564703    -0.07500
C547        C  0.35711514  0.50623569  0.85657227     0.06000
C548        C  0.32386189  0.47873818  0.85247051    -0.02600
Br549      Br  0.32253315  0.42723590  0.88121840    -0.02300
H550        H  0.26784167  0.46520464  0.82028143     0.09900
H551        H  0.38043409  0.56603075  0.84025125     0.07900
Br552      Br  0.32409830  0.60700118  0.78435728    -0.02700
C553        C  0.28550705  0.49252332  0.15298059    -0.09300
C554        C  0.29195648  0.52388988  0.18166308     0.06900
C555        C  0.32698216  0.54929165  0.17760523    -0.03100
C556        C  0.35693758  0.53978169  0.14874542    -0.07500
C557        C  0.35165520  0.50694273  0.12165909     0.06000
C558        C  0.31434421  0.48486556  0.12221653    -0.02600
Br559      Br  0.30139852  0.44291418  0.08336899    -0.02300
H560        H  0.25913120  0.47246836  0.15554249     0.09900
H561        H  0.38427608  0.55871171  0.14692873     0.07900
Br562      Br  0.33588261  0.59769723  0.21023131    -0.02700
C563        C  0.66956932  0.45042653  0.17746443    -0.09300
C564        C  0.69515902  0.48458295  0.18407618     0.06900
C565        C  0.68710552  0.52153666  0.16308658    -0.03100
C566        C  0.65426408  0.52358667  0.13547904    -0.07500
C567        C  0.62830560  0.48963578  0.12979266     0.06000
C568        C  0.63655981  0.45258771  0.15032951    -0.02600
Br569      Br  0.60405526  0.40409668  0.14173999    -0.02300
H570        H  0.67447423  0.42233299  0.19473591     0.09900
H571        H  0.64825577  0.55206525  0.11922966     0.07900
Br572      Br  0.71665757  0.57106816  0.17497697    -0.02700
C573        C  0.82612586  0.61671639  0.03292283    -0.09300
C574        C  0.85401658  0.62526673  0.00115128     0.06900
C575        C  0.84731117  0.65907266  0.97521209    -0.03100
C576        C  0.81476015  0.68570743  0.98355632    -0.07500
C577        C  0.78865189  0.67863653  0.01720144     0.06000
C578        C  0.79364670  0.64320425  0.04112742    -0.02600
Br579      Br  0.75962298  0.63207997  0.08773349    -0.02300
H580        H  0.83065818  0.59015395  0.05257573     0.09900
H581        H  0.81118412  0.71331878  0.96522241     0.07900
Br582      Br  0.88113229  0.66953914  0.92817679    -0.02700
C583        C  0.83445586  0.34683615  0.98103479    -0.09300
C584        C  0.85948955  0.36163131  0.01255128     0.06900
C585        C  0.85060713  0.35158810  0.05350155    -0.03100
C586        C  0.81754923  0.32591172  0.06236265    -0.07500
C587        C  0.79271385  0.31031432  0.03083968     0.06000
C588        C  0.80113980  0.32127372  0.98982704    -0.02600
Br589      Br  0.77131855  0.29873002  0.94439529    -0.02300
H590        H  0.84156802  0.35423229  0.94946650     0.09900
H591        H  0.81242203  0.31635441  0.09382386     0.07900
Br592      Br  0.88361109  0.37117103  0.09808046    -0.02700
C593        C  0.16781204  0.62430764  0.96310275    -0.09300
C594        C  0.13445765  0.63076691  0.98982909     0.06900
C595        C  0.13512978  0.66501873  0.01604126    -0.03100
C596        C  0.16806665  0.69245701  0.01428853    -0.07500
C597        C  0.20012619  0.68761724  0.98568022     0.06000
C598        C  0.19998657  0.65277854  0.96017209    -0.02600
Br599      Br  0.23976601  0.64474583  0.91772614    -0.02300
H600        H  0.16790598  0.59785947  0.94298701     0.09900
H601        H  0.16744917  0.71929428  0.03392825     0.07900
Br602      Br  0.09232889  0.67584645  0.05509121    -0.02700
C603        C  0.16155428  0.29574225  0.01358993    -0.09300
C604        C  0.19710839  0.30251034  0.98985937     0.06900
C605        C  0.20076803  0.34009361  0.96843997    -0.03100
C606        C  0.16960550  0.36957809  0.97182165    -0.07500
C607        C  0.13293787  0.36101953  0.99299293     0.06000
C608        C  0.12862822  0.32280793  0.01291462    -0.02600
Br609      Br  0.07832342  0.30309120  0.03699660    -0.02300
H610        H  0.15776011  0.26712563  0.03026954     0.09900
H611        H  0.17285507  0.39837419  0.95534762     0.07900
Br612      Br  0.24359690  0.35185657  0.93006309    -0.02700
C613        C  0.85680608  0.51411760  0.82059642    -0.09300
C614        C  0.85529164  0.48968607  0.85640083     0.06900
C615        C  0.82214547  0.46190665  0.86022513    -0.03100
C616        C  0.79321425  0.45765327  0.82855308    -0.07500
C617        C  0.79422623  0.48214808  0.79289815     0.06000
C618        C  0.82611822  0.51171743  0.78987536    -0.02600
Br619      Br  0.82741745  0.55271559  0.74759854    -0.02300
H620        H  0.88130018  0.53629602  0.81710703     0.09900
H621        H  0.76965995  0.43444915  0.83180812     0.07900
Br622      Br  0.81511339  0.42719447  0.90718416    -0.02700
C623        C  0.15842501  0.53524181  0.85554396    -0.09300
C624        C  0.13114447  0.50185014  0.85463610     0.06900
C625        C  0.13491049  0.47328572  0.82220029    -0.03100
C626        C  0.16716602  0.47697546  0.79343860    -0.07500
C627        C  0.19456939  0.51053967  0.79440639     0.06000
C628        C  0.18848752  0.54063305  0.82508872    -0.02600
Br629      Br  0.21474075  0.59324083  0.82242114    -0.02300
H630        H  0.15464862  0.55874215  0.87871750     0.09900
H631        H  0.17001245  0.45425080  0.76941027     0.07900
Br632      Br  0.09626279  0.42933251  0.81528616    -0.02700
C633        C  0.19161105  0.54124311  0.16380424    -0.09300
C634        C  0.19627230  0.50994070  0.19339849     0.06900
C635        C  0.17062466  0.47502006  0.19012584    -0.03100
C636        C  0.13924866  0.47352415  0.16033584    -0.07500
C637        C  0.13462390  0.50472505  0.13075357     0.06000
C638        C  0.16190479  0.53847729  0.13238789    -0.02600
Br639      Br  0.15908731  0.58220346  0.09297858    -0.02300
H640        H  0.21143555  0.56793478  0.16501675     0.09900
H641        H  0.11937941  0.44695006  0.15930806     0.07900
Br642      Br  0.18083891  0.42602837  0.22117832    -0.02700
C643        C  0.82646813  0.46732061  0.13037732    -0.09300
C644        C  0.85735181  0.49746285  0.13219450     0.06900
C645        C  0.85629791  0.52541171  0.16541338    -0.03100
C646        C  0.82402191  0.52392897  0.19433007    -0.07500
C647        C  0.79338323  0.49330826  0.19278146     0.06000
C648        C  0.79620122  0.46386816  0.16103383    -0.02600
Br649      Br  0.76466766  0.41431687  0.16161432    -0.02300
H650        H  0.82725284  0.44467445  0.10610220     0.09900
H651        H  0.82325956  0.54654859  0.21861659     0.07900
Br652      Br  0.89789468  0.56646708  0.17280471    -0.02700
C653        C  0.51779893  0.28244620  0.84165601    -0.09300
C654        C  0.52361247  0.29264556  0.80033021     0.06900
C655        C  0.51214475  0.33269220  0.78739769    -0.03100
C656        C  0.50297932  0.36305156  0.81625294    -0.07500
C657        C  0.50174433  0.35393807  0.85826881     0.06000
C658        C  0.50588347  0.31198207  0.87036352    -0.02600
Br659      Br  0.49568510  0.29091908  0.92482288    -0.02300
H660        H  0.52333721  0.25185347  0.85267432     0.09900
H661        H  0.49689820  0.39400759  0.80555145     0.07900
Br662      Br  0.50513800  0.34743486  0.73067023    -0.02700
C663        C  0.53232936  0.70024972  0.83753010    -0.09300
C664        C  0.50404379  0.70184922  0.80535638     0.06900
C665        C  0.47208320  0.67258979  0.80372058    -0.03100
C666        C  0.47151981  0.63967060  0.83128405    -0.07500
C667        C  0.50165055  0.63625854  0.86168969     0.06000
C668        C  0.53108154  0.66801062  0.86596381    -0.02600
Br669      Br  0.57258788  0.66730512  0.90772265    -0.02300
H670        H  0.55722780  0.72231197  0.83877261     0.09900
H671        H  0.44746000  0.61677415  0.82904137     0.07900
Br672      Br  0.42937401  0.67575550  0.76319998    -0.02700
C673        C  0.52224629  0.67468807  0.17886777    -0.09300
C674        C  0.48717176  0.69986109  0.18029319     0.06900
C675        C  0.45556095  0.69358448  0.15158743    -0.03100
C676        C  0.45853641  0.66120181  0.12353234    -0.07500
C677        C  0.49209541  0.63404609  0.12451326     0.06000
C678        C  0.52480207  0.64178656  0.15150543    -0.02600
Br679      Br  0.57315428  0.60813706  0.15257166    -0.02300
H680        H  0.54647685  0.67884188  0.20128508     0.09900
H681        H  0.43367875  0.65605585  0.10202261     0.07900
Br682      Br  0.40596765  0.72530389  0.15244980    -0.02700
C683        C  0.43889046  0.31598854  0.17364940    -0.09300
C684        C  0.47275489  0.28976524  0.17986541     0.06900
C685        C  0.50800947  0.29464113  0.15545770    -0.03100
C686        C  0.50943614  0.32618392  0.12650379    -0.07500
C687        C  0.47679933  0.35392883  0.12247134     0.06000
C688        C  0.44058077  0.34785173  0.14496426    -0.02600
Br689      Br  0.39305169  0.38199788  0.13747412    -0.02300
H690        H  0.41180444  0.31284899  0.19270668     0.09900
H691        H  0.53710659  0.33049009  0.10853644     0.07900
Br692      Br  0.55737687  0.26389707  0.16451046    -0.02700
C693        C  0.62654681  0.16436845  0.03673961    -0.09300
C694        C  0.63522329  0.13403603  0.00723714     0.06900
C695        C  0.67012784  0.13818380  0.98224050    -0.03100
C696        C  0.69657883  0.17133501  0.98840319    -0.07500
C697        C  0.68915735  0.20015152  0.01960460     0.06000
C698        C  0.65347553  0.19702821  0.04337952    -0.02600
Br699      Br  0.64256739  0.23377995  0.08795310    -0.02300
H700        H  0.59951031  0.16168668  0.05593191     0.09900
H701        H  0.72438528  0.17342437  0.97026282     0.07900
Br702      Br  0.68298035  0.09994902  0.93930426    -0.02700
C703        C  0.34945567  0.85408491  0.95083590    -0.09300
C704        C  0.37200452  0.85398974  0.98721398     0.06900
C705        C  0.36638638  0.82203536  0.01597284    -0.03100
C706        C  0.33646190  0.79180880  0.00872783    -0.07500
C707        C  0.31260003  0.79297854  0.97280502     0.06000
C708        C  0.32039576  0.82381932  0.94318387    -0.02600
Br709      Br  0.29167021  0.82696538  0.89172111    -0.02300
H710        H  0.35463618  0.87787586  0.92805305     0.09900
H711        H  0.33012050  0.76903028  0.03218245     0.07900
Br712      Br  0.39609597  0.82087802  0.06687254    -0.02700
C713        C  0.65257662  0.85303180  0.05265197    -0.09300
C714        C  0.63880099  0.85668294  0.01218893     0.06900
C715        C  0.64885737  0.82614195  0.98341164    -0.03100
C716        C  0.67302522  0.79259641  0.99543155    -0.07500
C717        C  0.68698335  0.78898912  0.03604831     0.06000
C718        C  0.67589630  0.81927692  0.06494323    -0.02600
Br719      Br  0.69133262  0.81596735  0.12180301    -0.02300
H720        H  0.64394363  0.87592228  0.07518628     0.09900
H721        H  0.68274422  0.77054191  0.97254763     0.07900
Br722      Br  0.63274534  0.83077974  0.92698009    -0.02700
C723        C  0.37018435  0.16537103  0.01458158    -0.09300
C724        C  0.36767644  0.13054840  0.98913240     0.06900
C725        C  0.33540310  0.12792387  0.96067103    -0.03100
C726        C  0.30932200  0.16124507  0.95517244    -0.07500
C727        C  0.30917204  0.19461033  0.98261383     0.06000
C728        C  0.33972336  0.19596018  0.01337800    -0.02600
Br729      Br  0.33796908  0.23346351  0.05851005    -0.02300
H730        H  0.39401370  0.16705085  0.03773763     0.09900
H731        H  0.28566650  0.15873486  0.93191139     0.07900
Br732      Br  0.32118106  0.07836178  0.93215710    -0.02700
C733        C  0.49029282  0.13563984  0.82595202    -0.09300
C734        C  0.51811075  0.13248902  0.85888324     0.06900
C735        C  0.55191119  0.15967676  0.85950608    -0.03100
C736        C  0.55769191  0.18802920  0.82745569    -0.07500
C737        C  0.52829756  0.19302237  0.79614667     0.06000
C738        C  0.49425426  0.16641764  0.79574615    -0.02600
Br739      Br  0.45159744  0.17214896  0.75576218    -0.02300
H740        H  0.46488989  0.11458635  0.82397737     0.09900
H741        H  0.58455321  0.20765817  0.82775975     0.07900
Br742      Br  0.59178934  0.15903631  0.90269995    -0.02700
C743        C  0.54515512  0.85774132  0.82960706    -0.09300
C744        C  0.51197223  0.85792226  0.85709300     0.06900
C745        C  0.48133641  0.82759951  0.85260043    -0.03100
C746        C  0.48392922  0.79832276  0.82093439    -0.07500
C747        C  0.51743778  0.79762395  0.79368594     0.06000
C748        C  0.54863682  0.82754230  0.79895135    -0.02600
Br749      Br  0.59908737  0.82612993  0.76878319    -0.02300
H750        H  0.56943009  0.88026382  0.83306947     0.09900
H751        H  0.45967479  0.77581718  0.81767953     0.07900
Br752      Br  0.43471264  0.82569084  0.88838052    -0.02700
C753        C  0.45930464  0.85819255  0.16280868    -0.09300
C754        C  0.49237748  0.85697943  0.13497874     0.06900
C755        C  0.52131007  0.82498081  0.13929326    -0.03100
C756        C  0.51671977  0.79490284  0.17000938    -0.07500
C757        C  0.48329427  0.79543355  0.19721582     0.06000
C758        C  0.45432194  0.82764903  0.19326511    -0.02600
Br759      Br  0.40564629  0.82950855  0.22623352    -0.02300
H760        H  0.43649187  0.88229777  0.16003980     0.09900
H761        H  0.53955976  0.77087204  0.17277275     0.07900
Br762      Br  0.56889069  0.82199924  0.10520060    -0.02700
C763        C  0.46596319  0.15891253  0.13128707    -0.09300
C764        C  0.49819662  0.13043438  0.13409491     0.06900
C765        C  0.52477023  0.13289334  0.16832057    -0.03100
C766        C  0.52035653  0.16497155  0.19697163    -0.07500
C767        C  0.48798579  0.19368123  0.19420175     0.06000
C768        C  0.45963641  0.18895303  0.16152381    -0.02600
Br769      Br  0.40838751  0.21773928  0.15901222    -0.02300
H770        H  0.44403806  0.15631234  0.10640250     0.09900
H771        H  0.54242499  0.16737316  0.22167056     0.07900
Br772      Br  0.56779987  0.09369649  0.17752069    -0.02700
C773        C  0.33498840  0.00936150  0.19319206    -0.09300
C774        C  0.31690020  0.97055001  0.19785741     0.06900
C775        C  0.32799026  0.93847079  0.17106879    -0.03100
C776        C  0.35316774  0.94660049  0.13754138    -0.07500
C777        C  0.36913867  0.98598685  0.13130358     0.06000
C778        C  0.36182144  0.01700142  0.16055378    -0.02600
Br779      Br  0.38680609  0.07029971  0.15647852    -0.02300
H780        H  0.32669890  0.03420965  0.21366179     0.09900
H781        H  0.36118945  0.92182811  0.11683487     0.07900
Br782      Br  0.30982379  0.88293732  0.17941072    -0.02700
C783        C  0.66889482  0.00662792  0.79463735    -0.09300
C784        C  0.68982372  0.96926544  0.79076510     0.06900
C785        C  0.68295497  0.93776145  0.81985144    -0.03100
C786        C  0.65741713  0.94487815  0.85348809    -0.07500
C787        C  0.63860886  0.98317409  0.85867594     0.06000
C788        C  0.64342096  0.01373461  0.82836503    -0.02600
Br789      Br  0.61846847  0.06681232  0.83371676    -0.02300
H790        H  0.67499843  0.03149480  0.77331001     0.09900
H791        H  0.65229840  0.92053690  0.87566810     0.07900
Br792      Br  0.70994269  0.88539166  0.81625253    -0.02700
C793        C  0.35762152  0.96263881  0.83448371    -0.09300
C794        C  0.37527356  0.99731701  0.85292760     0.06900
C795        C  0.36682140  0.03656183  0.83712539    -0.03100
C796        C  0.33769219  0.04133026  0.80628243    -0.07500
C797        C  0.31881661  0.00711653  0.78843418     0.06000
C798        C  0.32968417  0.96734611  0.80199811    -0.02600
Br799      Br  0.30446585  0.91914303  0.77938595    -0.02300
H800        H  0.36506134  0.93214137  0.84569550     0.09900
H801        H  0.32831237  0.07207854  0.79777311     0.07900
Br802      Br  0.39363609  0.08474815  0.85758921    -0.02700
C803        C  0.52968743  0.15914509  0.35316330    -0.09300
C804        C  0.50101291  0.12712758  0.35314752     0.06900
C805        C  0.47367020  0.12318522  0.31957270    -0.03100
C806        C  0.47302146  0.15324124  0.28887940    -0.07500
C807        C  0.50007183  0.18653819  0.29037396     0.06000
C808        C  0.53003463  0.18817787  0.32164248    -0.02600
Br809      Br  0.57211268  0.22955066  0.32271006    -0.02300
H810        H  0.55220578  0.16131467  0.37756074     0.09900
H811        H  0.44974005  0.15187457  0.26516050     0.07900
Br812      Br  0.43417981  0.07961452  0.31519364    -0.02700
C813        C  0.45973400  0.83347577  0.36047010    -0.09300
C814        C  0.49382652  0.85944750  0.35750263     0.06900
C815        C  0.51880720  0.85770065  0.32214518    -0.03100
C816        C  0.51047540  0.82865143  0.29144517    -0.07500
C817        C  0.47689699  0.80185341  0.29508656     0.06000
C818        C  0.45067915  0.80549462  0.32947030    -0.02600
Br819      Br  0.40134703  0.77353541  0.33559782    -0.02300
H820        H  0.43935095  0.83569110  0.38665535     0.09900
H821        H  0.53138579  0.82569156  0.26580197     0.07900
Br822      Br  0.56627067  0.89212488  0.31588045    -0.02700
C823        C  0.51187163  0.19436538  0.66841710    -0.09300
C824        C  0.54017516  0.18267972  0.69891779     0.06900
C825        C  0.55911677  0.14407658  0.69638718    -0.03100
C826        C  0.54931876  0.11766642  0.66395977    -0.07500
C827        C  0.52166628  0.12954306  0.63277567     0.06000
C828        C  0.50251093  0.16828451  0.63553047    -0.02600
Br829      Br  0.46225838  0.18652201  0.59652294    -0.02300
H830        H  0.49760817  0.22443614  0.66980531     0.09900
H831        H  0.56425736  0.08795698  0.66255191     0.07900
Br832      Br  0.60012852  0.12724197  0.73510805    -0.02700
C833        C  0.54748812  0.84081197  0.63315417    -0.09300
C834        C  0.51100394  0.86339676  0.63345303     0.06900
C835        C  0.48399070  0.85997834  0.66703099    -0.03100
C836        C  0.49244264  0.83165871  0.69833714    -0.07500
C837        C  0.52811838  0.80750419  0.69699402     0.06000
C838        C  0.55653466  0.81351498  0.66481028    -0.02600
Br839      Br  0.60822083  0.78511216  0.66229003    -0.02300
H840        H  0.56933587  0.84483675  0.60837769     0.09900
H841        H  0.46999813  0.82682600  0.72237937     0.07900
Br842      Br  0.43406102  0.89120754  0.66992075    -0.02700
C843        C  0.34042475  0.95932381  0.29252390    -0.09300
C844        C  0.30610318  0.98562896  0.29262470     0.06900
C845        C  0.30456957  0.01659204  0.32316482    -0.03100
C846        C  0.33448896  0.01790100  0.35440085    -0.07500
C847        C  0.36832021  0.99109454  0.35436883     0.06000
C848        C  0.37175247  0.96263768  0.32182768    -0.02600
Br849      Br  0.41778671  0.92639119  0.31572485    -0.02300
H850        H  0.34281781  0.93548999  0.26954366     0.09900
H851        H  0.33229502  0.04129998  0.37789149     0.07900
Br852      Br  0.26648003  0.06138153  0.32134743    -0.02700
C853        C  0.64594994  0.95054917  0.65242429    -0.09300
C854        C  0.63892974  0.98888151  0.63364519     0.06900
C855        C  0.66198762  0.02295741  0.64734516    -0.03100
C856        C  0.69265833  0.01785695  0.67743857    -0.07500
C857        C  0.70082185  0.97918482  0.69494712     0.06000
C858        C  0.67664069  0.94545827  0.68247484    -0.02600
Br859      Br  0.68531421  0.89158636  0.70453054    -0.02300
H860        H  0.62771155  0.92424827  0.64334216     0.09900
H861        H  0.70970835  0.04439134  0.68790494     0.07900
Br862      Br  0.65081313  0.07751748  0.62813410    -0.02700
C863        C  0.36366958  0.03341128  0.65663955    -0.09300
C864        C  0.36508293  0.99925340  0.63053335     0.06900
C865        C  0.33505468  0.96822144  0.63531765    -0.03100
C866        C  0.30571710  0.97084668  0.66700259    -0.07500
C867        C  0.30468176  0.00491858  0.69340159     0.06000
C868        C  0.33324162  0.03703082  0.68682985    -0.02600
Br869      Br  0.32769877  0.08945078  0.71299852    -0.02300
H870        H  0.38520919  0.05842105  0.65220317     0.09900
H871        H  0.28332825  0.94653028  0.67077044     0.07900
Br872      Br  0.33309411  0.92157313  0.59961581    -0.02700
C873        C  0.66661430  0.98127059  0.19968632    -0.09300
C874        C  0.68938357  0.01791866  0.19836244     0.06900
C875        C  0.68167785  0.04692187  0.16699928    -0.03100
C876        C  0.65404175  0.03772938  0.13609839    -0.07500
C877        C  0.63293987  0.00048943  0.13620619     0.06000
C878        C  0.63810109  0.97246601  0.16878268    -0.02600
Br879      Br  0.60997738  0.92058618  0.17001012    -0.02300
H880        H  0.67301471  0.95834635  0.22299709     0.09900
H881        H  0.64883872  0.05995835  0.11177968     0.07900
Br882      Br  0.70917379  0.09908922  0.16332180    -0.02700
C883        C  0.66983893  0.03667210  0.29585061    -0.09300
C884        C  0.70167385  0.00751263  0.29358455     0.06900
C885        C  0.70147188  0.97476912  0.32226111    -0.03100
C886        C  0.67173956  0.97326084  0.35359551    -0.07500
C887        C  0.64028073  0.00267097  0.35604963     0.06000
C888        C  0.63923832  0.03428354  0.32618080    -0.02600
Br889      Br  0.59779106  0.07615996  0.32614859    -0.02300
H890        H  0.66910955  0.06187024  0.27408233     0.09900
H891        H  0.67221213  0.94793143  0.37523975     0.07900
Br892      Br  0.73752111  0.92857858  0.31748709    -0.02700
C893        C  0.32534688  0.80539806  0.52545182    -0.09300
C894        C  0.29535470  0.80634254  0.49426202     0.06900
C895        C  0.29666207  0.83855387  0.46539216    -0.03100
C896        C  0.32814242  0.86802931  0.46726905    -0.07500
C897        C  0.35997088  0.86476679  0.49637346     0.06000
C898        C  0.35787990  0.83349149  0.52613857    -0.02600
Br899      Br  0.39918404  0.82708546  0.56775745    -0.02300
H900        H  0.32533396  0.78045604  0.54755720     0.09900
H901        H  0.32922581  0.89208896  0.44423474     0.07900
Br902      Br  0.26028994  0.84000386  0.41938050    -0.02700
C903        C  0.70433908  0.83217570  0.51197085    -0.09300
C904        C  0.70738141  0.80777536  0.47687870     0.06900
C905        C  0.67868715  0.81277735  0.44480592    -0.03100
C906        C  0.64534169  0.83921794  0.44983476    -0.07500
C907        C  0.64066918  0.86127918  0.48629736     0.06000
C908        C  0.67126670  0.85891883  0.51680898    -0.02600
Br909      Br  0.66743112  0.88895913  0.56712893    -0.02300
H910        H  0.72573496  0.82794102  0.53710999     0.09900
H911        H  0.62313075  0.84264147  0.42528690     0.07900
Br912      Br  0.68310654  0.78278146  0.39434583    -0.02700
C913        C  0.71645047  0.14224127  0.52025799    -0.09300
C914        C  0.70996316  0.18209457  0.50605057     0.06900
C915        C  0.67530152  0.19091684  0.48169792    -0.03100
C916        C  0.64441706  0.16169778  0.47741145    -0.07500
C917        C  0.64862061  0.12276772  0.49526211     0.06000
C918        C  0.68670029  0.11205919  0.51411055    -0.02600
Br919      Br  0.70061209  0.05820328  0.53445866    -0.02300
H920        H  0.74343538  0.13520210  0.53843725     0.09900
H921        H  0.61684325  0.16965201  0.46055230     0.07900
Br922      Br  0.66822463  0.24317678  0.45505365    -0.02700
C923        C  0.34991157  0.14407103  0.52989639    -0.09300
C924        C  0.36750664  0.13157862  0.49279319     0.06900
C925        C  0.35003161  0.14423626  0.45545104    -0.03100
C926        C  0.31557061  0.16985904  0.45557041    -0.07500
C927        C  0.29878778  0.18377790  0.49267831     0.06000
C928        C  0.31633413  0.17081557  0.53004126    -0.02600
Br929      Br  0.29809273  0.19211309  0.58173848    -0.02300
H930        H  0.36296571  0.13381701  0.55875437     0.09900
H931        H  0.30371172  0.18137919  0.42667113     0.07900
Br932      Br  0.37409406  0.12915155  0.40390777    -0.02700
C933        C  0.80047962  0.01604550  0.65975883    -0.09300
C934        C  0.79725517  0.97913245  0.68183954     0.06900
C935        C  0.82561459  0.94733619  0.67412735    -0.03100
C936        C  0.85730410  0.95343348  0.64617772    -0.07500
C937        C  0.86157549  0.99049619  0.62518401     0.06000
C938        C  0.83221165  0.02170765  0.63121503    -0.02600
Br939      Br  0.83657725  0.07376241  0.60443320    -0.02300
H940        H  0.78025002  0.04147820  0.66669544     0.09900
H941        H  0.87903295  0.92927707  0.64086070     0.07900
Br942      Br  0.82430587  0.89592013  0.70330747    -0.02700
C943        C  0.17775220  0.01313307  0.61773964    -0.09300
C944        C  0.14272022  0.98967776  0.62698504     0.06900
C945        C  0.14171258  0.96712720  0.66369621    -0.03100
C946        C  0.17373392  0.97154554  0.69192087    -0.07500
C947        C  0.20654320  0.99902534  0.68475699     0.06000
C948        C  0.20866150  0.01942930  0.64668703    -0.02600
Br949      Br  0.24844778  0.06081781  0.63382370    -0.02300
H950        H  0.17995452  0.02878639  0.58853247     0.09900
H951        H  0.17193070  0.95491958  0.72071621     0.07900
Br952      Br  0.09845474  0.92889539  0.67591247    -0.02700
C953        C  0.17683064  0.96566532  0.36854646    -0.09300
C954        C  0.14353554  0.99245881  0.36155173     0.06900
C955        C  0.14349292  0.01748115  0.32626315    -0.03100
C956        C  0.17552728  0.01419878  0.29817282    -0.07500
C957        C  0.20758526  0.98588059  0.30405259     0.06000
C958        C  0.20834596  0.96171914  0.33969895    -0.02600
Br959      Br  0.24863426  0.91964217  0.34755476    -0.02300
H960        H  0.17719544  0.94608763  0.39549551     0.09900
H961        H  0.17441819  0.03246473  0.27032752     0.07900
Br962      Br  0.10077809  0.05646646  0.31434792    -0.02700
C963        C  0.83232785  0.02759336  0.36647055    -0.09300
C964        C  0.86527685  0.00044538  0.35959384     0.06900
C965        C  0.86426509  0.97411243  0.32555381    -0.03100
C966        C  0.83126969  0.97622743  0.29854274    -0.07500
C967        C  0.79977508  0.00533817  0.30376733     0.06000
C968        C  0.80018766  0.03103690  0.33829147    -0.02600
Br969      Br  0.76099507  0.07436169  0.34592033    -0.02300
H970        H  0.83254946  0.04753479  0.39300392     0.09900
H971        H  0.83141181  0.95665223  0.27166500     0.07900
Br972      Br  0.90671066  0.93477277  0.31417161    -0.02700
C973        C  0.13736242  0.82478178  0.45790963    -0.09300
C974        C  0.13742920  0.85291522  0.49061287     0.06900
C975        C  0.16846743  0.84899677  0.52067958    -0.03100
C976        C  0.19831669  0.81770126  0.51765146    -0.07500
C977        C  0.19891920  0.79006217  0.48439970     0.06000
C978        C  0.16803063  0.79440905  0.45405031    -0.02600
Br979      Br  0.16899331  0.76353094  0.40402134    -0.02300
H980        H  0.11424983  0.82755272  0.43417737     0.09900
H981        H  0.22150482  0.81513724  0.54132529     0.07900
Br982      Br  0.17068632  0.88498527  0.56720244    -0.02700
C983        C  0.85927996  0.83255730  0.52581043    -0.09300
C984        C  0.86261552  0.86011637  0.49272253     0.06900
C985        C  0.83461443  0.85632958  0.45990849    -0.03100
C986        C  0.80512362  0.82468429  0.45998461    -0.07500
C987        C  0.80185403  0.79673183  0.49292166     0.06000
C988        C  0.82878064  0.80187316  0.52664918    -0.02600
Br989      Br  0.82279823  0.77128165  0.57656045    -0.02300
H990        H  0.87977275  0.83573932  0.55180787     0.09900
H991        H  0.78462664  0.82175451  0.43399404     0.07900
Br992      Br  0.83641063  0.89278138  0.41355400    -0.02700
C993        C  0.86182208  0.15153058  0.53810802    -0.09300
C994        C  0.86904320  0.13604426  0.49871364     0.06900
C995        C  0.84514822  0.15138330  0.46584276    -0.03100
C996        C  0.81380539  0.18059817  0.47317203    -0.07500
C997        C  0.80585646  0.19493053  0.51310812     0.06000
C998        C  0.83015353  0.17969745  0.54561778    -0.02600
Br999      Br  0.81903170  0.19377646  0.60156092    -0.02300
H1000       H  0.88027479  0.14066120  0.56356954     0.09900
H1001       H  0.79568239  0.19216741  0.44779055     0.07900
Br1002     Br  0.85572662  0.13471162  0.41053976    -0.02700
C1003       C  0.19673398  0.17084591  0.52476155    -0.09300
C1004       C  0.20278376  0.19272814  0.48806251     0.06900
C1005       C  0.17897933  0.18208658  0.45355799    -0.03100
C1006       C  0.14974187  0.15038485  0.45627976    -0.07500
C1007       C  0.14308350  0.12915628  0.49325868     0.06000
C1008       C  0.16724113  0.13945459  0.52756461    -0.02600
Br1009     Br  0.16009455  0.11253378  0.57921516    -0.02300
H1010       H  0.21443295  0.17885802  0.55162289     0.09900
H1011       H  0.13230172  0.14203943  0.42927110     0.07900
Br1012     Br  0.18636188  0.20899702  0.40180994    -0.02700
C1013       C  0.02683077  0.62802741  0.16082490    -0.09300
C1014       C  0.99566460  0.63094065  0.13112405     0.06900
C1015       C  0.96486516  0.66080632  0.13509474    -0.03100
C1016       C  0.96654884  0.68825944  0.16772102    -0.07500
C1017       C  0.99846909  0.68639283  0.19669877     0.06000
C1018       C  0.02881206  0.65592851  0.19322198    -0.02600
Br1019     Br  0.07578722  0.65399067  0.22868900    -0.02300
H1020       H  0.05055713  0.60484156  0.15791333     0.09900
H1021       H  0.94363619  0.71234924  0.16970883     0.07900
Br1022     Br  0.91957342  0.66487511  0.09756248    -0.02700
C1023       C  0.97403784  0.83226142  0.35546018    -0.09300
C1024       C  0.00892105  0.85657736  0.36190089     0.06900
C1025       C  0.04668282  0.84500740  0.34470918    -0.03100
C1026       C  0.04842277  0.81080378  0.31905254    -0.07500
C1027       C  0.01278574  0.78830891  0.30984664     0.06000
C1028       C  0.97553383  0.79864687  0.32902501    -0.02600
Br1029     Br  0.92491599  0.77162042  0.31601994    -0.02300
H1030       H  0.94519196  0.84042692  0.36987869     0.09900
H1031       H  0.07701139  0.80364172  0.30363488     0.07900
Br1032     Br  0.09613536  0.87559932  0.35446358    -0.02700
C1033       C  0.02687189  0.33741873  0.84930268    -0.09300
C1034       C  0.99249197  0.36250918  0.85513932     0.06900
C1035       C  0.95971620  0.36065629  0.82686276    -0.03100
C1036       C  0.96044835  0.33182555  0.79505228    -0.07500
C1037       C  0.99386912  0.30515486  0.79062822     0.06000
C1038       C  0.02786082  0.30909113  0.81715212    -0.02600
Br1039     Br  0.07564274  0.27508389  0.81135949    -0.02300
H1040       H  0.05294718  0.33982137  0.86982567     0.09900
H1041       H  0.93371580  0.32831857  0.77555696     0.07900
Br1042     Br  0.91183676  0.39441612  0.83253076    -0.02700
C1043       C  0.95518575  0.13170245  0.65162661    -0.09300
C1044       C  0.99126098  0.13210570  0.62831307     0.06900
C1045       C  0.01808494  0.16603137  0.63126233    -0.03100
C1046       C  0.01038032  0.19707046  0.65987072    -0.07500
C1047       C  0.97569471  0.19523119  0.68514510     0.06000
C1048       C  0.94704258  0.16309567  0.67960610    -0.02600
Br1049     Br  0.89656200  0.16035003  0.70999207    -0.02300
H1050       H  0.93321149  0.10695179  0.64795453     0.09900
H1051       H  0.03289777  0.22118920  0.66419173     0.07900
Br1052     Br  0.06720537  0.16993572  0.59920272    -0.02700
C1053       C  0.98769400  0.66336010  0.79202882    -0.09300
C1054       C  0.02765003  0.67917423  0.78856894     0.06900
C1055       C  0.05760456  0.66760225  0.81771369    -0.03100
C1056       C  0.04679199  0.64269656  0.85076258    -0.07500
C1057       C  0.00657228  0.62847224  0.85511618     0.06000
C1058       C  0.97707281  0.63787439  0.82502468    -0.02600
Br1059     Br  0.92159358  0.61872146  0.82943751    -0.02300
H1060       H  0.96411498  0.67285528  0.77059810     0.09900
H1061       H  0.07003499  0.63397577  0.87297841     0.07900
Br1062     Br  0.11371860  0.68537624  0.81430004    -0.02700
C1063       C  0.98188082  0.80530097  0.67575040    -0.09300
C1064       C  0.01911353  0.78388119  0.67736385     0.06900
C1065       C  0.05073671  0.79440595  0.65003983    -0.03100
C1066       C  0.04595010  0.82826746  0.62385215    -0.07500
C1067       C  0.00941689  0.85127699  0.62407890     0.06000
C1068       C  0.97643742  0.83773321  0.64825014    -0.02600
Br1069     Br  0.92278116  0.86003178  0.64248964    -0.02300
H1070       H  0.95744649  0.79778419  0.69700379     0.09900
H1071       H  0.07088890  0.83692007  0.60359889     0.07900
Br1072     Br  0.10127363  0.76420670  0.64913382    -0.02700
C1073       C  0.16367699  0.62388684  0.45526312    -0.09300
C1074       C  0.13318352  0.62840464  0.48513885     0.06900
C1075       C  0.13090063  0.66615147  0.50673653    -0.03100
C1076       C  0.16094640  0.69656037  0.50091875    -0.07500
C1077       C  0.19245145  0.69131435  0.47218655     0.06000
C1078       C  0.19216293  0.65520642  0.44770358    -0.02600
Br1079     Br  0.22867672  0.64715716  0.40202141    -0.02300
H1080       H  0.16446290  0.59636494  0.43658991     0.09900
H1081       H  0.16048256  0.72360416  0.52018860     0.07900
Br1082     Br  0.08867429  0.67786974  0.54591956    -0.02700
C1083       C  0.85251716  0.34874617  0.54814757    -0.09300
C1084       C  0.85883874  0.35834998  0.50680038     0.06900
C1085       C  0.84092274  0.33427333  0.47599987    -0.03100
C1086       C  0.81757758  0.30000491  0.48702161    -0.07500
C1087       C  0.81077444  0.29059577  0.52853918     0.06000
C1088       C  0.82782062  0.31570476  0.55922199    -0.02600
Br1089     Br  0.81668313  0.30757703  0.61642692    -0.02300
H1090       H  0.86666261  0.36726289  0.57189640     0.09900
H1091       H  0.80255197  0.28226193  0.46324818     0.07900
Br1092     Br  0.84516260  0.34901466  0.41919643    -0.02700
C1093       C  0.15352061  0.35138407  0.45675134    -0.09300
C1094       C  0.12529993  0.34843358  0.48883563     0.06900
C1095       C  0.12597061  0.31344935  0.51470948    -0.03100
C1096       C  0.15709171  0.28394363  0.50999920    -0.07500
C1097       C  0.18699418  0.28857860  0.47934773     0.06000
C1098       C  0.18369188  0.32168334  0.45142770    -0.02600
Br1099     Br  0.22052247  0.32903553  0.40598045    -0.02300
H1100       H  0.15220720  0.37718828  0.43566918     0.09900
H1101       H  0.15956243  0.25906894  0.53202036     0.07900
Br1102     Br  0.08790331  0.30641826  0.55914777    -0.02700
C1103       C  0.84004179  0.63505910  0.52955475    -0.09300
C1104       C  0.86759730  0.63434397  0.49684384     0.06900
C1105       C  0.86969381  0.66816419  0.46972998    -0.03100
C1106       C  0.84183158  0.70058511  0.47386919    -0.07500
C1107       C  0.81212521  0.69968437  0.50489116     0.06000
C1108       C  0.81253009  0.66740056  0.53394691    -0.02600
Br1109     Br  0.77480902  0.66488155  0.57920496    -0.02300
H1110       H  0.84012298  0.61046803  0.55190023     0.09900
H1111       H  0.84127151  0.72474071  0.45093140     0.07900
Br1112     Br  0.90749061  0.66981593  0.42454904    -0.02700
C1113       C  0.15976188  0.46720319  0.35227300    -0.09300
C1114       C  0.12643299  0.49416014  0.35188866     0.06900
C1115       C  0.12164627  0.52197529  0.31864904    -0.03100
C1116       C  0.15174250  0.52427225  0.28819355    -0.07500
C1117       C  0.18630815  0.49896281  0.29014017     0.06000
C1118       C  0.18936465  0.46908772  0.32158687    -0.02600
Br1119     Br  0.23413251  0.43068082  0.32484108    -0.02300
H1120       H  0.16294668  0.44475383  0.37670048     0.09900
H1121       H  0.14953090  0.54772921  0.26462371     0.07900
Br1122     Br  0.07715080  0.56047827  0.31486849    -0.02700
C1123       C  0.83476321  0.46834207  0.28970804    -0.09300
C1124       C  0.80642346  0.50058305  0.28820213     0.06900
C1125       C  0.80890650  0.53270239  0.31703066    -0.03100
C1126       C  0.83681657  0.53015819  0.34937624    -0.07500
C1127       C  0.86333460  0.49648454  0.35253236     0.06000
C1128       C  0.86356038  0.46633317  0.32141879    -0.02600
Br1129     Br  0.90014379  0.41999792  0.32274633    -0.02300
H1130       H  0.83258986  0.44326060  0.26799021     0.09900
H1131       H  0.83785961  0.55446755  0.37203715     0.07900
Br1132     Br  0.77342482  0.57977560  0.31398552    -0.02700
C1133       C  0.19177736  0.47217824  0.66526405    -0.09300
C1134       C  0.18311235  0.50000246  0.69730702     0.06900
C1135       C  0.14438761  0.51901891  0.69856590    -0.03100
C1136       C  0.11625307  0.51133972  0.66731819    -0.07500
C1137       C  0.12694259  0.48769285  0.63284439     0.06000
C1138       C  0.16460917  0.46675822  0.63256431    -0.02600
Br1139     Br  0.18074700  0.43109854  0.58849942    -0.02300
H1140       H  0.22145221  0.45715487  0.66394432     0.09900
H1141       H  0.08679121  0.52673265  0.66848954     0.07900
Br1142     Br  0.12981758  0.56062644  0.73750787    -0.02700
C1143       C  0.79351724  0.50121793  0.65877419    -0.09300
C1144       C  0.80146663  0.47617642  0.69306297     0.06900
C1145       C  0.83835030  0.45397847  0.69491400    -0.03100
C1146       C  0.86744344  0.45880297  0.66362536    -0.07500
C1147       C  0.85919074  0.48358187  0.62900404     0.06000
C1148       C  0.82115284  0.50406039  0.62639453    -0.02600
Br1149     Br  0.80379823  0.53540461  0.57951564    -0.02300
H1150       H  0.76442647  0.51725139  0.65629013     0.09900
H1151       H  0.89586499  0.44157720  0.66542115     0.07900
Br1152     Br  0.84813749  0.41342032  0.73649299    -0.02700
C1153       C  0.96747489  0.63372302  0.32611798    -0.09300
C1154       C  0.99859172  0.63019426  0.35590122     0.06900
C1155       C  0.03135312  0.65860217  0.35451077    -0.03100
C1156       C  0.03253215  0.68949962  0.32428916    -0.07500
C1157       C  0.00150612  0.69327286  0.29450966     0.06000
C1158       C  0.96840913  0.66501710  0.29600052    -0.02600
Br1159     Br  0.92186934  0.66953814  0.26029471    -0.02300
H1160       H  0.94172150  0.61266051  0.32691795     0.09900
H1161       H  0.05837310  0.71042705  0.32354206     0.07900
Br1162     Br  0.07692890  0.65488713  0.39154369    -0.02700
C1163       C  0.01945089  0.31759032  0.69194732    -0.09300
C1164       C  0.98492691  0.29179143  0.69500979     0.06900
C1165       C  0.95292071  0.29719261  0.66623049    -0.03100
C1166       C  0.95619975  0.32680576  0.63474787    -0.07500
C1167       C  0.99067419  0.35267003  0.63166829     0.06000
C1168       C  0.02246321  0.34774091  0.66088350    -0.02600
Br1169     Br  0.07155916  0.38018719  0.65851189    -0.02300
H1170       H  0.04439916  0.31395777  0.71362745     0.09900
H1171       H  0.93103991  0.33051962  0.61329767     0.07900
Br1172     Br  0.90246563  0.26750627  0.67102442    -0.02700
C1173       C  0.97476010  0.65074836  0.64325089    -0.09300
C1174       C  0.00878799  0.62748657  0.63044975     0.06900
C1175       C  0.04731561  0.63553592  0.64856546    -0.03100
C1176       C  0.05106533  0.66536462  0.67945809    -0.07500
C1177       C  0.01712027  0.68856093  0.69234529     0.06000
C1178       C  0.97869660  0.68111553  0.67377763    -0.02600
Br1179     Br  0.93062552  0.71073779  0.68992737    -0.02300
H1180       H  0.94497936  0.64520780  0.62951742     0.09900
H1181       H  0.08089354  0.67131203  0.69289160     0.07900
Br1182     Br  0.09622480  0.60838355  0.63047948    -0.02700
C1183       C  0.98287824  0.35419840  0.16062718    -0.09300
C1184       C  0.01436400  0.36660451  0.13409275     0.06900
C1185       C  0.05467697  0.35308282  0.14116068    -0.03100
C1186       C  0.06222135  0.32400031  0.17169695    -0.07500
C1187       C  0.03036337  0.30951184  0.19691862     0.06000
C1188       C  0.99043817  0.32546133  0.19172524    -0.02600
Br1189     Br  0.94424804  0.30583566  0.22251766    -0.02300
H1190       H  0.95212560  0.36602530  0.15645787     0.09900
H1191       H  0.09302781  0.31191537  0.17527983     0.07900
Br1192     Br  0.10052670  0.37491664  0.11125418    -0.02700
C1193       C  0.03695220  0.20378648  0.33923901    -0.09300
C1194       C  0.01916017  0.19743756  0.30076345     0.06900
C1195       C  0.99414734  0.16251254  0.29462680    -0.03100
C1196       C  0.99116298  0.13247129  0.32503674    -0.07500
C1197       C  0.01072986  0.13745498  0.36293342     0.06000
C1198       C  0.03188629  0.17489012  0.37074210    -0.02600
Br1199     Br  0.05585894  0.18885518  0.42266694    -0.02300
H1200       H  0.05586864  0.23067120  0.34445715     0.09900
H1201       H  0.97298880  0.10521408  0.31913514     0.07900
Br1202     Br  0.96236375  0.15460683  0.24559252    -0.02700
C1203       C  0.03597575  0.35992395  0.32746713    -0.09300
C1204       C  0.00441438  0.35373515  0.35610348     0.06900
C1205       C  0.98145913  0.31690755  0.35364918    -0.03100
C1206       C  0.98830983  0.28905138  0.32134942    -0.07500
C1207       C  0.02020017  0.29511949  0.29282390     0.06000
C1208       C  0.04515920  0.33047874  0.29747750    -0.02600
Br1209     Br  0.09592011  0.33784578  0.26861775    -0.02300
H1210       H  0.05540610  0.38684990  0.33002927     0.09900
H1211       H  0.96907088  0.26204081  0.31902985     0.07900
Br1212     Br  0.94111838  0.30225529  0.39376105    -0.02700
loop_ 
_geom_bond_atom_site_label_1 
_geom_bond_atom_site_label_2 
_geom_bond_distance 
_geom_bond_site_symmetry_2 
_ccdc_geom_bond_type 
N1            C5   1.364       .  A
N1            C2   1.365       .  A
N1         C1207   1.458       .  S
C2            C3   1.382       .  A
C2         C1194   1.477       .  S
C3            C4   1.363       .  A
C3            H6   1.083       .  S
C4            C5   1.379       .  A
C4            H7   1.083       .  S
C5         C1187   1.475       .  S
O8          Zr44   2.463       .  S
O8           C19   1.297       .  A
O9          Zr43   2.467       .  S
O9           C20   1.296       .  A
O10         Zr16   2.411   1_455  S
O10          C21   1.286       .  A
O11         Zr16   2.404       .  S
O11          C22   1.285       .  A
O12         Zr46   2.441       .  S
O12          C22   1.292       .  A
O13         Zr45   2.462       .  S
O13          C21   1.299       .  A
O14         Zr16   2.478       .  S
O14          C20   1.298       .  A
O15         Zr16   2.457       .  S
O15          C19   1.294       .  A
Zr16         O17   2.331       .  S
Zr16         O18   2.345   1_655  S
Zr16         O26   2.354       .  S
Zr16         O24   2.337   1_655  S
O17         Zr43   2.329       .  S
O17         Zr46   2.344       .  S
O18         Zr44   2.340   1_455  S
O18         Zr45   2.345       .  S
C19        C1204   1.496   1_655  S
C20        C1167   1.502       .  S
C21        C1094   1.470       .  S
C22        C1084   1.450       .  S
H23          O24   0.965       .  S
O24         Zr43   2.342   1_455  S
O24         Zr45   2.356       .  S
H25          O26   0.967       .  S
O26         Zr44   2.342       .  S
O26         Zr46   2.350       .  S
O27         Zr43   2.468   1_455  S
O27          C50   1.296       .  A
O28         Zr44   2.474       .  S
O28          C51   1.297       .  A
O29         Zr45   2.465       .  S
O29          C52   1.299       .  A
O30         Zr46   2.442       .  S
O30          C53   1.293       .  A
O31         Zr46   2.463       .  S
O31          C54   1.297       .  A
O32         Zr45   2.474       .  S
O32          C55   1.300       .  A
O33         Zr47   2.413   1_455  S
O33          C56   1.286       .  A
O34         Zr47   2.394       .  S
O34          C57   1.283       .  A
O35         Zr45   2.486       .  S
O35          C56   1.302       .  A
O36         Zr46   2.454       .  S
O36          C57   1.296       .  A
O37         Zr43   2.389   1_455  S
O37          C52   1.284       .  A
O38         Zr44   2.385   1_455  S
O38          C55   1.281       .  A
O39         Zr44   2.391       .  S
O39          C54   1.282       .  A
O40         Zr43   2.425       .  S
O40          C53   1.290       .  A
O41         Zr47   2.459   1_455  S
O41          C50   1.294       .  A
O42         Zr47   2.462       .  S
O42          C51   1.296       .  A
Zr43         O49   2.347   1_655  S
Zr43         O61   2.342       .  S
Zr44         O48   2.333       .  S
Zr44         O59   2.339   1_655  S
Zr45         O49   2.346       .  S
Zr45         O59   2.341       .  S
Zr46         O48   2.336       .  S
Zr46         O61   2.354       .  S
Zr47         O48   2.343       .  S
Zr47         O49   2.336   1_655  S
Zr47         O61   2.350       .  S
Zr47         O59   2.333   1_655  S
C50        C1174   1.491       .  S
C51        C1154   1.500       .  S
C52        C1137   1.471       .  S
C53        C1147   1.477       .  S
C54        C1127   1.463       .  S
C55        C1114   1.468       .  S
C56        C1074   1.488       .  S
C57        C1104   1.460       .  S
H58          O59   0.965       .  S
H60          O61   0.966       .  S
N62          C66   1.359       .  A
N62          C63   1.361       .  A
N62        C1177   1.449       .  S
C63          C64   1.383       .  A
C63        C1054   1.472       .  S
C64          C65   1.363       .  A
C64          H67   1.082       .  S
C65          C66   1.378       .  A
C65          H68   1.082       .  S
C66        C1064   1.464       .  S
N69          C73   1.363       .  A
N69          C70   1.366       .  A
N69        C1164   1.457       .  S
C70          C71   1.382       .  A
C70        C1047   1.475       .  S
C71          C72   1.362       .  A
C71          H74   1.083       .  S
C72          C73   1.380       .  A
C72          H75   1.083       .  S
C73        C1037   1.470       .  S
N76          C80   1.362       .  A
N76          C77   1.364       .  A
N76        C1157   1.459       .  S
C77          C78   1.380       .  A
C77        C1017   1.463   1_455  S
C78          C79   1.358       .  A
C78          H81   1.083       .  S
C79          C80   1.379       .  A
C79          H82   1.083       .  S
C80        C1027   1.463       .  S
O83        Zr119   2.473   1_545  S
O83          C94   1.301       .  A
O84        Zr118   2.472   1_645  S
O84          C95   1.299       .  A
O85         Zr91   2.462   1_655  S
O85          C96   1.295       .  A
O86         Zr91   2.455       .  S
O86          C97   1.294       .  A
O87        Zr121   2.461   1_545  S
O87          C97   1.295       .  A
O88        Zr120   2.469   1_545  S
O88          C96   1.296       .  A
O89         Zr91   2.407       .  S
O89          C95   1.286   1_455  A
O90         Zr91   2.405       .  S
O90          C94   1.284       .  A
Zr91         O92   2.347       .  S
Zr91         O93   2.341   1_455  S
Zr91        O101   2.341       .  S
Zr91         O99   2.338   1_455  S
O92        Zr118   2.358   1_545  S
O92        Zr121   2.351   1_545  S
O93        Zr119   2.348   1_645  S
O93        Zr120   2.342   1_545  S
C94        C1197   1.483       .  S
C95        C1044   1.470       .  S
C96         C994   1.493       .  S
C97        C1007   1.487       .  S
H98          O99   0.965       .  S
O99        Zr118   2.351   1_645  S
O99        Zr120   2.332   1_545  S
H100        O101   0.966       .  S
O101       Zr119   2.342   1_545  S
O101       Zr121   2.337   1_545  S
O102       Zr118   2.482       .  S
O102        C125   1.301       .  A
O103       Zr119   2.466       .  S
O103        C126   1.298       .  A
O104       Zr120   2.413       .  S
O104        C127   1.286       .  A
O105       Zr121   2.390       .  S
O105        C128   1.284       .  A
O106       Zr121   2.411       .  S
O106        C129   1.287       .  A
O107       Zr120   2.398       .  S
O107        C130   1.284       .  A
O108       Zr122   2.460   1_655  S
O108        C131   1.295       .  A
O109       Zr122   2.467       .  S
O109        C132   1.296       .  A
O110       Zr120   2.463       .  S
O110        C131   1.296       .  A
O111       Zr121   2.471       .  S
O111        C132   1.297       .  A
O112       Zr118   2.469   1_655  S
O112        C127   1.299       .  A
O113       Zr119   2.458   1_655  S
O113        C130   1.297       .  A
O114       Zr119   2.455       .  S
O114        C129   1.296       .  A
O115       Zr118   2.475       .  S
O115        C128   1.300       .  A
O116       Zr122   2.401       .  S
O116        C125   1.283       .  A
O117       Zr122   2.384       .  S
O117        C126   1.281       .  A
Zr118       O124   2.348   1_455  S
Zr118       O136   2.345       .  S
Zr119       O123   2.344       .  S
Zr119       O134   2.352   1_455  S
Zr120       O124   2.349       .  S
Zr120       O134   2.345       .  S
Zr121       O123   2.332       .  S
Zr121       O136   2.337       .  S
Zr122       O123   2.339       .  S
Zr122       O124   2.339   1_455  S
Zr122       O136   2.331       .  S
Zr122       O134   2.345   1_455  S
C125       C1067   1.470       .  S
C126       C1024   1.455       .  S
C127        C937   1.471       .  S
C128        C944   1.474       .  S
C129        C954   1.473       .  S
C130        C964   1.467   1_565  S
C131        C984   1.493       .  S
C132        C974   1.502       .  S
H133        O134   0.966       .  S
H135        O136   0.964       .  S
N137        C141   1.361       .  A
N137        C138   1.362       .  A
N137       C1004   1.449       .  S
C138        C139   1.383       .  A
C138       C1097   1.476       .  S
C139        C140   1.362       .  A
C139        H142   1.082       .  S
C140        C141   1.377       .  A
C140        H143   1.082       .  S
C141        C927   1.466       .  S
N144        C148   1.355       .  A
N144        C145   1.357       .  A
N144        C997   1.452       .  S
C145        C146   1.381       .  A
C145       C1087   1.460       .  S
C146        C147   1.362       .  A
C146        H149   1.082       .  S
C147        C148   1.381       .  A
C147        H150   1.083       .  S
C148        C914   1.461       .  S
N151        C155   1.365       .  A
N151        C152   1.362       .  A
N151        C987   1.459       .  S
C152        C153   1.379       .  A
C152        C904   1.464       .  S
C153        C154   1.357       .  A
C153        H156   1.083       .  S
C154        C155   1.381       .  A
C154        H157   1.083       .  S
C155       C1107   1.467       .  S
N158        C162   1.373       .  A
N158        C159   1.377       .  A
N158        C977   1.463       .  S
C159        C160   1.383       .  A
C159       C1077   1.494       .  S
C160        C161   1.357       .  A
C160        H163   1.082       .  S
C161        C162   1.378       .  A
C161        H164   1.083       .  S
C162        C894   1.488       .  S
N165        C169   1.363       .  A
N165        C166   1.365       .  A
N165        C884   1.458       .  S
C166        C167   1.380       .  A
C166        C967   1.466       .  S
C167        C168   1.354       .  A
C167        H170   1.083       .  S
C168        C169   1.381       .  A
C168        H171   1.082       .  S
C169        C874   1.467       .  S
O172       Zr208   2.462       .  S
O172        C183   1.297       .  A
O173       Zr207   2.477       .  S
O173        C184   1.301       .  A
O174       Zr180   2.474       .  S
O174        C185   1.298       .  A
O175       Zr180   2.461       .  S
O175        C186   1.295       .  A
O176       Zr210   2.459       .  S
O176        C186   1.295       .  A
O177       Zr209   2.440       .  S
O177        C185   1.291       .  A
O178       Zr180   2.416       .  S
O178        C184   1.287       .  A
O179       Zr180   2.405   1_545  S
O179        C183   1.285       .  A
Zr180       O181   2.342       .  S
Zr180       O182   2.341   1_565  S
Zr180       O190   2.354   1_565  S
Zr180       O188   2.336       .  S
O181       Zr207   2.349       .  S
O181       Zr210   2.343       .  S
O182       Zr208   2.355       .  S
O182       Zr209   2.343   1_545  S
C183        C924   1.460       .  S
C184        C897   1.482       .  S
C185        C847   1.495       .  S
C186        C864   1.491       .  S
H187        O188   0.965       .  S
O188       Zr207   2.340       .  S
O188       Zr209   2.336       .  S
H189        O190   0.966       .  S
O190       Zr208   2.356       .  S
O190       Zr210   2.340   1_545  S
O191       Zr207   2.471       .  S
O191        C214   1.298       .  A
O192       Zr208   2.481       .  S
O192        C215   1.302       .  A
O193       Zr209   2.426       .  S
O193        C216   1.289       .  A
O194       Zr210   2.410       .  S
O194        C217   1.286       .  A
O195       Zr210   2.419   1_545  S
O195        C218   1.288       .  A
O196       Zr209   2.401   1_545  S
O196        C219   1.284       .  A
O197       Zr211   2.479       .  S
O197        C220   1.299       .  A
O198       Zr211   2.484       .  S
O198        C221   1.299       .  A
O199       Zr209   2.447       .  S
O199        C220   1.292       .  A
O200       Zr210   2.456       .  S
O200        C221   1.294       .  A
O201       Zr207   2.449       .  S
O201        C216   1.295       .  A
O202       Zr208   2.468       .  S
O202        C219   1.299       .  A
O203       Zr208   2.474       .  S
O203        C218   1.299       .  A
O204       Zr207   2.451       .  S
O204        C217   1.296       .  A
O205       Zr211   2.383       .  S
O205        C214   1.281       .  A
O206       Zr211   2.370   1_545  S
O206        C215   1.276       .  A
Zr207       O213   2.349       .  S
Zr207       O225   2.346       .  S
Zr208       O212   2.342       .  S
Zr208       O223   2.343       .  S
Zr209       O213   2.336       .  S
Zr209       O223   2.341   1_565  S
Zr210       O212   2.338   1_565  S
Zr210       O225   2.346       .  S
Zr211       O212   2.337   1_565  S
Zr211       O213   2.339       .  S
Zr211       O225   2.335       .  S
Zr211       O223   2.337   1_565  S
C214        C907   1.460       .  S
C215        C917   1.475       .  S
C216        C814   1.473       .  S
C217        C834   1.461       .  S
C218        C827   1.486       .  S
C219        C804   1.472       .  S
C220        C887   1.495   1_565  S
C221        C854   1.496       .  S
H222        O223   0.966       .  S
H224        O225   0.964       .  S
N226        C230   1.365       .  A
N226        C227   1.361       .  A
N226        C867   1.451       .  S
C227        C228   1.377       .  A
C227        C797   1.470       .  S
C228        C229   1.364       .  A
C228        H231   1.083       .  S
C229        C230   1.385       .  A
C229        H232   1.083       .  S
C230        C947   1.482   1_545  S
N233        C237   1.362       .  A
N233        C234   1.362       .  A
N233        C857   1.453       .  S
C234        C235   1.381       .  A
C234        C934   1.470       .  S
C235        C236   1.361       .  A
C235        H238   1.083       .  S
C236        C237   1.380       .  A
C236        H239   1.083       .  S
C237        C784   1.466       .  S
N240        C244   1.367       .  A
N240        C241   1.365       .  A
N240        C844   1.461       .  S
C241        C242   1.379       .  A
C241        C774   1.469       .  S
C242        C243   1.357       .  A
C242        H245   1.083       .  S
C243        C244   1.380       .  A
C243        H246   1.083       .  S
C244        C957   1.468       .  S
O247       Zr283   2.439   1_554  S
O247        C258   1.293       .  A
O248       Zr282   2.463   1_554  S
O248        C259   1.297       .  A
O249       Zr255   2.459   1_545  S
O249        C260   1.294       .  A
O250       Zr255   2.454       .  S
O250        C261   1.293       .  A
O251       Zr285   2.481   1_554  S
O251        C261   1.300       .  A
O252       Zr284   2.468   1_554  S
O252        C260   1.297       .  A
O253       Zr255   2.392       .  S
O253        C259   1.282       .  A
O254       Zr255   2.397       .  S
O254        C258   1.283       .  A
Zr255       O256   2.336       .  S
Zr255       O257   2.336   1_565  S
Zr255       O265   2.341       .  S
Zr255       O263   2.340   1_565  S
O256       Zr282   2.341   1_554  S
O256       Zr285   2.338   1_554  S
O257       Zr283   2.348   1_544  S
O257       Zr284   2.339   1_554  S
C258        C877   1.451   1_565  S
C259        C777   1.458       .  S
C260        C764   1.496       .  S
C261        C754   1.501       .  S
H262        O263   0.966       .  S
O263       Zr282   2.347   1_544  S
O263       Zr284   2.340   1_554  S
H264        O265   0.965       .  S
O265       Zr283   2.353   1_554  S
O265       Zr285   2.339   1_554  S
O266       Zr282   2.465       .  S
O266        C289   1.297       .  A
O267       Zr283   2.471       .  S
O267        C290   1.298       .  A
O268       Zr284   2.425       .  S
O268        C291   1.290       .  A
O269       Zr285   2.411       .  S
O269        C292   1.286       .  A
O270       Zr285   2.420       .  S
O270        C293   1.288   1_556  A
O271       Zr284   2.397   1_554  S
O271        C294   1.285       .  A
O272       Zr286   2.470   1_545  S
O272        C295   1.297       .  A
O273       Zr286   2.454       .  S
O273        C296   1.294       .  A
O274       Zr284   2.468       .  S
O274        C295   1.297       .  A
O275       Zr285   2.471       .  S
O275        C296   1.298       .  A
O276       Zr282   2.451   1_545  S
O276        C291   1.295       .  A
O277       Zr283   2.465   1_545  S
O277        C294   1.298   1_556  A
O278       Zr283   2.452   1_554  S
O278        C293   1.295       .  A
O279       Zr282   2.450       .  S
O279        C292   1.296       .  A
O280       Zr286   2.404       .  S
O280        C289   1.284       .  A
O281       Zr286   2.390       .  S
O281        C290   1.282       .  A
Zr282       O288   2.349   1_565  S
Zr282       O300   2.343       .  S
Zr283       O287   2.336       .  S
Zr283       O298   2.343   1_565  S
Zr284       O288   2.343       .  S
Zr284       O298   2.351       .  S
Zr285       O287   2.342       .  S
Zr285       O300   2.348       .  S
Zr286       O287   2.341       .  S
Zr286       O288   2.340   1_565  S
Zr286       O300   2.342       .  S
Zr286       O298   2.338   1_565  S
C289        C794   1.463       .  S
C290        C787   1.464       .  S
C291        C724   1.475       .  S
C292        C704   1.463       .  S
C293        C714   1.463       .  S
C294        C694   1.468       .  S
C295        C734   1.498       .  S
C296        C744   1.494       .  S
H297        O298   0.966       .  S
H299        O300   0.966       .  S
N301        C305   1.367       .  A
N301        C302   1.366       .  A
N301        C767   1.463       .  S
C302        C303   1.381       .  A
C302        C807   1.471       .  S
C303        C304   1.359       .  A
C303        H306   1.083       .  S
C304        C305   1.379       .  A
C304        H307   1.083       .  S
C305        C684   1.470       .  S
N308        C312   1.368       .  A
N308        C309   1.365       .  A
N308        C757   1.456       .  S
C309        C310   1.378       .  A
C309        C674   1.473       .  S
C310        C311   1.359       .  A
C310        H313   1.083       .  S
C311        C312   1.383       .  A
C311        H314   1.082       .  S
C312        C817   1.481       .  S
N315        C319   1.365       .  A
N315        C316   1.364       .  A
N315        C747   1.458       .  S
C316        C317   1.379       .  A
C316        C664   1.470       .  S
C317        C318   1.359       .  A
C317        H320   1.083       .  S
C318        C319   1.382       .  A
C318        H321   1.082       .  S
C319        C837   1.474       .  S
N322        C326   1.368       .  A
N322        C323   1.363       .  A
N322        C737   1.452       .  S
C323        C324   1.378       .  A
C323        C824   1.477       .  S
C324        C325   1.365       .  A
C324        H327   1.082       .  S
C325        C326   1.383       .  A
C325        H328   1.082       .  S
C326        C654   1.497       .  S
O329       Zr365   2.469   1_454  S
O329        C340   1.298       .  A
O330       Zr364   2.454   1_554  S
O330        C341   1.295       .  A
O331       Zr337   2.474   1_455  S
O331        C342   1.298       .  A
O332       Zr337   2.479       .  S
O332        C343   1.299       .  A
O333       Zr367   2.470   1_554  S
O333        C343   1.298       .  A
O334       Zr366   2.476   1_554  S
O334        C342   1.298       .  A
O335       Zr337   2.396       .  S
O335        C341   1.283       .  A
O336       Zr337   2.398   1_455  S
O336        C340   1.283       .  A
Zr337       O338   2.337       .  S
Zr337       O339   2.344   1_655  S
Zr337       O347   2.340       .  S
Zr337       O345   2.341   1_655  S
O338       Zr364   2.344   1_554  S
O338       Zr367   2.346   1_554  S
O339       Zr365   2.346   1_454  S
O339       Zr366   2.336   1_554  S
C340       C1184   1.462       .  S
C341       C1014   1.460       .  S
C342        C637   1.503       .  S
C343        C644   1.507       .  S
H344        O345   0.965       .  S
O345       Zr364   2.345   1_454  S
O345       Zr366   2.347   1_554  S
H346        O347   0.965       .  S
O347       Zr365   2.344   1_554  S
O347       Zr367   2.341   1_554  S
O348       Zr364   2.446       .  S
O348        C371   1.294       .  A
O349       Zr365   2.475       .  S
O349        C372   1.299       .  A
O350       Zr366   2.408       .  S
O350        C373   1.286       .  A
O351       Zr367   2.382       .  S
O351        C374   1.282       .  A
O352       Zr367   2.408       .  S
O352        C375   1.285   1_556  A
O353       Zr366   2.429       .  S
O353        C376   1.291       .  A
O354       Zr368   2.468   1_455  S
O354        C377   1.297       .  A
O355       Zr368   2.471       .  S
O355        C378   1.297       .  A
O356       Zr366   2.466       .  S
O356        C377   1.297       .  A
O357       Zr367   2.475       .  S
O357        C378   1.298       .  A
O358       Zr364   2.474   1_455  S
O358        C373   1.300       .  A
O359       Zr365   2.426   1_455  S
O359        C376   1.290       .  A
O360       Zr365   2.450   1_554  S
O360        C375   1.294       .  A
O361       Zr364   2.465       .  S
O361        C374   1.298       .  A
O362       Zr368   2.406       .  S
O362        C371   1.285       .  A
O363       Zr368   2.402       .  S
O363        C372   1.285       .  A
Zr364       O370   2.340   1_655  S
Zr364       O382   2.354       .  S
Zr365       O369   2.345       .  S
Zr365       O380   2.348   1_655  S
Zr366       O370   2.341       .  S
Zr366       O380   2.345       .  S
Zr367       O369   2.333       .  S
Zr367       O382   2.347       .  S
Zr368       O369   2.345       .  S
Zr368       O370   2.340   1_655  S
Zr368       O382   2.339       .  S
Zr368       O380   2.348   1_655  S
C371       C1057   1.457   1_655  S
C372       C1034   1.470       .  S
C373        C594   1.479       .  S
C374        C574   1.460   1_556  S
C375        C584   1.457       .  S
C376        C607   1.474       .  S
C377        C624   1.499       .  S
C378        C614   1.511       .  S
H379        O380   0.966       .  S
H381        O382   0.965       .  S
N383        C387   1.368       .  A
N383        C384   1.363       .  A
N383        C647   1.463       .  S
C384        C385   1.380       .  A
C384       C1124   1.464       .  S
C385        C386   1.358       .  A
C385        H388   1.083       .  S
C386        C387   1.380       .  A
C386        H389   1.083       .  S
C387        C564   1.469       .  S
N390        C394   1.366       .  A
N390        C391   1.367       .  A
N390        C634   1.461       .  S
C391        C392   1.384       .  A
C391        C554   1.477       .  S
C392        C393   1.355       .  A
C392        H395   1.082       .  S
C393        C394   1.378       .  A
C393        H396   1.083       .  S
C394       C1117   1.468       .  S
N397        C401   1.367       .  A
N397        C398   1.370       .  A
N397        C627   1.460       .  S
C398        C399   1.381       .  A
C398        C544   1.481       .  S
C399        C400   1.357       .  A
C399        H402   1.082       .  S
C400        C401   1.380       .  A
C400        H403   1.083       .  S
C401       C1134   1.476       .  S
N404        C408   1.365       .  A
N404        C405   1.370       .  A
N404        C617   1.466       .  S
C405        C406   1.383       .  A
C405       C1144   1.471       .  S
C406        C407   1.355       .  A
C406        H409   1.083       .  S
C407        C408   1.376       .  A
C407        H410   1.083       .  S
C408        C537   1.463       .  S
N411        C415   1.370       .  A
N411        C412   1.372       .  A
N411        C524   1.453       .  S
C412        C413   1.383       .  A
C412        C604   1.488       .  S
C413        C414   1.350       .  A
C413        H416   1.083       .  S
C414        C415   1.382       .  A
C414        H417   1.083       .  S
C415        C727   1.488       .  S
O418       Zr454   2.460       .  S
O418        C429   1.297       .  A
O419       Zr453   2.479       .  S
O419        C430   1.301       .  A
O420       Zr426   2.454       .  S
O420        C431   1.294       .  A
O421       Zr426   2.482       .  S
O421        C432   1.299       .  A
O422       Zr456   2.466   1_554  S
O422        C432   1.297   1_554  A
O423       Zr455   2.472       .  S
O423        C431   1.298       .  A
O424       Zr426   2.393       .  S
O424        C430   1.280       .  A
O425       Zr426   2.394   1_554  S
O425        C429   1.283       .  A
Zr426       O427   2.331       .  S
Zr426       O428   2.344   1_556  S
Zr426       O436   2.340   1_556  S
Zr426       O434   2.348       .  S
O427       Zr453   2.353       .  S
O427       Zr456   2.339       .  S
O428       Zr454   2.347       .  S
O428       Zr455   2.333   1_554  S
C429        C687   1.458       .  S
C430        C657   1.493       .  S
C431        C527   1.495       .  S
C432        C494   1.505   1_556  S
H433        O434   0.966       .  S
O434       Zr453   2.349       .  S
O434       Zr455   2.344       .  S
H435        O436   0.965       .  S
O436       Zr454   2.353       .  S
O436       Zr456   2.345   1_554  S
O437       Zr453   2.482       .  S
O437        C460   1.301       .  A
O438       Zr454   2.477       .  S
O438        C461   1.300       .  A
O439       Zr455   2.407       .  S
O439        C462   1.285       .  A
O440       Zr456   2.410       .  S
O440        C463   1.286       .  A
O441       Zr456   2.408   1_554  S
O441        C464   1.285       .  A
O442       Zr455   2.413   1_554  S
O442        C465   1.286       .  A
O443       Zr457   2.464       .  S
O443        C466   1.297       .  A
O444       Zr457   2.467       .  S
O444        C467   1.296       .  A
O445       Zr455   2.461       .  S
O445        C466   1.295       .  A
O446       Zr456   2.464       .  S
O446        C467   1.296       .  A
O447       Zr453   2.470       .  S
O447        C462   1.299       .  A
O448       Zr454   2.454       .  S
O448        C465   1.297       .  A
O449       Zr454   2.458       .  S
O449        C464   1.297       .  A
O450       Zr453   2.448       .  S
O450        C463   1.294       .  A
O451       Zr457   2.393       .  S
O451        C460   1.283       .  A
O452       Zr457   2.398   1_554  S
O452        C461   1.284       .  A
Zr453       O459   2.340       .  S
Zr453       O471   2.357       .  S
Zr454       O458   2.342       .  S
Zr454       O469   2.339       .  S
Zr455       O459   2.346       .  S
Zr455       O469   2.347   1_556  S
Zr456       O458   2.338   1_556  S
Zr456       O471   2.348       .  S
Zr457       O458   2.332   1_556  S
Zr457       O459   2.341       .  S
Zr457       O471   2.342       .  S
Zr457       O469   2.337   1_556  S
C460        C667   1.472       .  S
C461        C677   1.469       .  S
C462        C547   1.471       .  S
C463        C534   1.456       .  S
C464        C567   1.461       .  S
C465        C557   1.470       .  S
C466        C504   1.495       .  S
C467        C514   1.497   1_556  S
H468        O469   0.965       .  S
H470        O471   0.966       .  S
N472        C476   1.360       .  A
N472        C473   1.364       .  A
N472        C517   1.460       .  S
C473        C474   1.383       .  A
C473        C717   1.472       .  S
C474        C475   1.360       .  A
C474        H477   1.082       .  S
C475        C476   1.377       .  A
C475        H478   1.083       .  S
C476        C577   1.460       .  S
N479        C483   1.370       .  A
N479        C480   1.368       .  A
N479        C507   1.458       .  S
C480        C481   1.380       .  A
C480        C707   1.478       .  S
C481        C482   1.358       .  A
C481        H484   1.083       .  S
C482        C483   1.382       .  A
C482        H485   1.083       .  S
C483        C597   1.483       .  S
N486        C490   1.361       .  A
N486        C487   1.362       .  A
N486        C497   1.458       .  S
C487        C488   1.380       .  A
C487        C587   1.467       .  S
C488        C489   1.361       .  A
C488        H491   1.083       .  S
C489        C490   1.380       .  A
C489        H492   1.083       .  S
C490        C697   1.464       .  S
C493        C494   1.406       .  A
C493        C498   1.407       .  A
C493        H500   1.083       .  S
C494        C495   1.417   1_554  A
C495        C496   1.411       .  A
C495       Br502   1.909       .  S
C496        C497   1.406   1_556  A
C496        H501   1.082       .  S
C497        C498   1.413       .  A
C498       Br499   1.914       .  S
C503        C504   1.402       .  A
C503        C508   1.404       .  A
C503        H510   1.084       .  S
C504        C505   1.414   1_556  A
C505        C506   1.411       .  A
C505       Br512   1.917       .  S
C506        C507   1.409   1_554  A
C506        H511   1.082       .  S
C507        C508   1.417       .  A
C508       Br509   1.915       .  S
C513        C514   1.403       .  A
C513        C518   1.405       .  A
C513        H520   1.084       .  S
C514        C515   1.413   1_554  A
C515        C516   1.413       .  A
C515       Br522   1.917       .  S
C516        C517   1.410   1_556  A
C516        H521   1.082       .  S
C517        C518   1.416       .  A
C518       Br519   1.915       .  S
C523        C524   1.408       .  A
C523        C528   1.408       .  A
C523        H530   1.083       .  S
C524        C525   1.413   1_556  A
C525        C526   1.406       .  A
C525       Br532   1.917       .  S
C526        C527   1.403   1_554  A
C526        H531   1.078       .  S
C527        C528   1.412       .  A
C528       Br529   1.916       .  S
C533        C534   1.399       .  A
C533        C538   1.397       .  A
C533        H540   1.083       .  S
C534        C535   1.403       .  A
C535        C536   1.392       .  A
C535       Br542   1.913       .  S
C536        C537   1.401       .  A
C536        H541   1.084       .  S
C537        C538   1.407       .  A
C538       Br539   1.916       .  S
C543        C544   1.403       .  A
C543        C548   1.402       .  A
C543        H550   1.083       .  S
C544        C545   1.416       .  A
C545        C546   1.395       .  A
C545       Br552   1.923       .  S
C546        C547   1.397       .  A
C546        H551   1.084       .  S
C547        C548   1.411       .  A
C548       Br549   1.918       .  S
C553        C554   1.401       .  A
C553        C558   1.397       .  A
C553        H560   1.082       .  S
C554        C555   1.415       .  A
C555        C556   1.391       .  A
C555       Br562   1.924       .  S
C556        C557   1.398       .  A
C556        H561   1.084       .  S
C557        C558   1.412       .  A
C558       Br559   1.911       .  S
C563        C564   1.406       .  A
C563        C568   1.393       .  A
C563        H570   1.084       .  S
C564        C565   1.406       .  A
C565        C566   1.399       .  A
C565       Br572   1.917       .  S
C566        C567   1.403       .  A
C566        H571   1.084       .  S
C567        C568   1.403       .  A
C568       Br569   1.921       .  S
C573        C574   1.405       .  A
C573        C578   1.391       .  A
C573        H580   1.084       .  S
C574        C575   1.402   1_554  A
C575        C576   1.396       .  A
C575       Br582   1.918       .  S
C576        C577   1.407   1_556  A
C576        H581   1.084       .  S
C577        C578   1.399       .  A
C578       Br579   1.915       .  S
C583        C584   1.398   1_556  A
C583        C588   1.397       .  A
C583        H590   1.081       .  S
C584        C585   1.404       .  A
C585        C586   1.393       .  A
C585       Br592   1.917       .  S
C586        C587   1.403       .  A
C586        H591   1.084       .  S
C587        C588   1.410   1_554  A
C588       Br589   1.918       .  S
C593        C594   1.409       .  A
C593        C598   1.402       .  A
C593        H600   1.083       .  S
C594        C595   1.406   1_556  A
C595        C596   1.397       .  A
C595       Br602   1.921       .  S
C596        C597   1.409   1_554  A
C596        H601   1.084       .  S
C597        C598   1.407       .  A
C598       Br599   1.914       .  S
C603        C604   1.410   1_554  A
C603        C608   1.388       .  A
C603        H610   1.084       .  S
C604        C605   1.411       .  A
C605        C606   1.401       .  A
C605       Br612   1.912       .  S
C606        C607   1.407       .  A
C606        H611   1.084       .  S
C607        C608   1.408   1_556  A
C608       Br609   1.927       .  S
C613        C614   1.411       .  A
C613        C618   1.417       .  A
C613        H620   1.082       .  S
C614        C615   1.413       .  A
C615        C616   1.404       .  A
C615       Br622   1.914       .  S
C616        C617   1.408       .  A
C616        H621   1.081       .  S
C617        C618   1.419       .  A
C618       Br619   1.916       .  S
C623        C624   1.404       .  A
C623        C628   1.405       .  A
C623        H630   1.083       .  S
C624        C625   1.415       .  A
C625        C626   1.413       .  A
C625       Br632   1.919       .  S
C626        C627   1.411       .  A
C626        H631   1.082       .  S
C627        C628   1.415       .  A
C628       Br629   1.915       .  S
C633        C634   1.409       .  A
C633        C638   1.411       .  A
C633        H640   1.083       .  S
C634        C635   1.414       .  A
C635        C636   1.410       .  A
C635       Br642   1.915       .  S
C636        C637   1.406       .  A
C636        H641   1.080       .  S
C637        C638   1.414       .  A
C638       Br639   1.916       .  S
C643        C644   1.406       .  A
C643        C648   1.408       .  A
C643        H650   1.083       .  S
C644        C645   1.416       .  A
C645        C646   1.413       .  A
C645       Br652   1.918       .  S
C646        C647   1.411       .  A
C646        H651   1.082       .  S
C647        C648   1.415       .  A
C648       Br649   1.911       .  S
C653        C654   1.399       .  A
C653        C658   1.398       .  A
C653        H660   1.072       .  S
C654        C655   1.418       .  A
C655        C656   1.398       .  A
C655       Br662   1.922       .  S
C656        C657   1.401       .  A
C656        H661   1.083       .  S
C657        C658   1.426       .  A
C658       Br659   1.930       .  S
C663        C664   1.396       .  A
C663        C668   1.398       .  A
C663        H670   1.084       .  S
C664        C665   1.412       .  A
C665        C666   1.396       .  A
C665       Br672   1.920       .  S
C666        C667   1.399       .  A
C666        H671   1.084       .  S
C667        C668   1.416       .  A
C668       Br669   1.918       .  S
C673        C674   1.406       .  A
C673        C678   1.397       .  A
C673        H680   1.084       .  S
C674        C675   1.406       .  A
C675        C676   1.400       .  A
C675       Br682   1.917       .  S
C676        C677   1.406       .  A
C676        H681   1.084       .  S
C677        C678   1.404       .  A
C678       Br679   1.918       .  S
C683        C684   1.408       .  A
C683        C688   1.395       .  A
C683        H690   1.084       .  S
C684        C685   1.406       .  A
C685        C686   1.393       .  A
C685       Br692   1.916       .  S
C686        C687   1.400       .  A
C686        H691   1.084       .  S
C687        C688   1.403       .  A
C688       Br689   1.920       .  S
C693        C694   1.408       .  A
C693        C698   1.395       .  A
C693        H700   1.084       .  S
C694        C695   1.405   1_554  A
C695        C696   1.395       .  A
C695       Br702   1.921       .  S
C696        C697   1.406   1_556  A
C696        H701   1.084       .  S
C697        C698   1.401       .  A
C698       Br699   1.917       .  S
C703        C704   1.394       .  A
C703        C708   1.389       .  A
C703        H710   1.084       .  S
C704        C705   1.410   1_556  A
C705        C706   1.405       .  A
C705       Br712   1.920       .  S
C706        C707   1.405   1_554  A
C706        H711   1.083       .  S
C707        C708   1.414       .  A
C708       Br709   1.923       .  S
C713        C714   1.398       .  A
C713        C718   1.393       .  A
C713        H720   1.084       .  S
C714        C715   1.407   1_554  A
C715        C716   1.400       .  A
C715       Br722   1.918       .  S
C716        C717   1.404   1_556  A
C716        H721   1.083       .  S
C717        C718   1.412       .  A
C718       Br719   1.923       .  S
C723        C724   1.408   1_554  A
C723        C728   1.405       .  A
C723        H730   1.084       .  S
C724        C725   1.404       .  A
C725        C726   1.388       .  A
C725       Br732   1.919       .  S
C726        C727   1.408       .  A
C726        H731   1.084       .  S
C727        C728   1.413   1_556  A
C728       Br729   1.914       .  S
C733        C734   1.408       .  A
C733        C738   1.408       .  A
C733        H740   1.076       .  S
C734        C735   1.412       .  A
C735        C736   1.405       .  A
C735       Br742   1.915       .  S
C736        C737   1.408       .  A
C736        H741   1.083       .  S
C737        C738   1.407       .  A
C738       Br739   1.913       .  S
C743        C744   1.404       .  A
C743        C748   1.407       .  A
C743        H750   1.084       .  S
C744        C745   1.411       .  A
C745        C746   1.409       .  A
C745       Br752   1.916       .  S
C746        C747   1.408       .  A
C746        H751   1.082       .  S
C747        C748   1.418       .  A
C748       Br749   1.916       .  S
C753        C754   1.409       .  A
C753        C758   1.412       .  A
C753        H760   1.084       .  S
C754        C755   1.411       .  A
C755        C756   1.406       .  A
C755       Br762   1.910       .  S
C756        C757   1.405       .  A
C756        H761   1.083       .  S
C757        C758   1.416       .  A
C758       Br759   1.917       .  S
C763        C764   1.403       .  A
C763        C768   1.405       .  A
C763        H770   1.084       .  S
C764        C765   1.414       .  A
C765        C766   1.409       .  A
C765       Br772   1.918       .  S
C766        C767   1.411       .  A
C766        H771   1.082       .  S
C767        C768   1.418       .  A
C768       Br769   1.915       .  S
C773        C774   1.401   1_545  A
C773        C778   1.399       .  A
C773        H780   1.084       .  S
C774        C775   1.409       .  A
C775        C776   1.392       .  A
C775       Br782   1.920       .  S
C776        C777   1.397       .  A
C776        H781   1.084       .  S
C777        C778   1.410   1_565  A
C778       Br779   1.920       .  S
C783        C784   1.399   1_545  A
C783        C788   1.397       .  A
C783        H790   1.084       .  S
C784        C785   1.412       .  A
C785        C786   1.396       .  A
C785       Br792   1.921       .  S
C786        C787   1.399       .  A
C786        H791   1.084       .  S
C787        C788   1.409   1_565  A
C788       Br789   1.916       .  S
C793        C794   1.403       .  A
C793        C798   1.404       .  A
C793        H800   1.084       .  S
C794        C795   1.403   1_565  A
C795        C796   1.390       .  A
C795       Br802   1.915       .  S
C796        C797   1.399       .  A
C796        H801   1.081       .  S
C797        C798   1.411   1_545  A
C798       Br799   1.919       .  S
C803        C804   1.399       .  A
C803        C808   1.394       .  A
C803        H810   1.084       .  S
C804        C805   1.417       .  A
C805        C806   1.397       .  A
C805       Br812   1.920       .  S
C806        C807   1.397       .  A
C806        H811   1.084       .  S
C807        C808   1.412       .  A
C808       Br809   1.921       .  S
C813        C814   1.399       .  A
C813        C818   1.393       .  A
C813        H820   1.084       .  S
C814        C815   1.412       .  A
C815        C816   1.404       .  A
C815       Br822   1.920       .  S
C816        C817   1.404       .  A
C816        H821   1.083       .  S
C817        C818   1.415       .  A
C818       Br819   1.924       .  S
C823        C824   1.407       .  A
C823        C828   1.402       .  A
C823        H830   1.084       .  S
C824        C825   1.402       .  A
C825        C826   1.400       .  A
C825       Br832   1.916       .  S
C826        C827   1.411       .  A
C826        H831   1.083       .  S
C827        C828   1.409       .  A
C828       Br829   1.919       .  S
C833        C834   1.397       .  A
C833        C838   1.391       .  A
C833        H840   1.084       .  S
C834        C835   1.409       .  A
C835        C836   1.400       .  A
C835       Br842   1.920       .  S
C836        C837   1.403       .  A
C836        H841   1.083       .  S
C837        C838   1.413       .  A
C838       Br839   1.922       .  S
C843        C844   1.408       .  A
C843        C848   1.402       .  A
C843        H850   1.082       .  S
C844        C845   1.419   1_565  A
C845        C846   1.410       .  A
C845       Br852   1.914       .  S
C846        C847   1.405   1_545  A
C846        H851   1.083       .  S
C847        C848   1.414       .  A
C848       Br849   1.918       .  S
C853        C854   1.406       .  A
C853        C858   1.409       .  A
C853        H860   1.083       .  S
C854        C855   1.412   1_565  A
C855        C856   1.409       .  A
C855       Br862   1.915       .  S
C856        C857   1.405   1_545  A
C856        H861   1.082       .  S
C857        C858   1.411       .  A
C858       Br859   1.913       .  S
C863        C864   1.402   1_545  A
C863        C868   1.402       .  A
C863        H870   1.084       .  S
C864        C865   1.414       .  A
C865        C866   1.410       .  A
C865       Br872   1.915       .  S
C866        C867   1.405   1_565  A
C866        H871   1.083       .  S
C867        C868   1.415       .  A
C868       Br869   1.917       .  S
C873        C874   1.405   1_565  A
C873        C878   1.400       .  A
C873        H880   1.083       .  S
C874        C875   1.412       .  A
C875        C876   1.384       .  A
C875       Br882   1.922       .  S
C876        C877   1.393       .  A
C876        H881   1.085       .  S
C877        C878   1.408   1_545  A
C878       Br879   1.921       .  S
C883        C884   1.407       .  A
C883        C888   1.406       .  A
C883        H890   1.083       .  S
C884        C885   1.415   1_545  A
C885        C886   1.409       .  A
C885       Br892   1.913       .  S
C886        C887   1.404   1_565  A
C886        H891   1.083       .  S
C887        C888   1.415       .  A
C888       Br889   1.918       .  S
C893        C894   1.410       .  A
C893        C898   1.400       .  A
C893        H900   1.084       .  S
C894        C895   1.407       .  A
C895        C896   1.405       .  A
C895       Br902   1.911       .  S
C896        C897   1.409       .  A
C896        H901   1.084       .  S
C897        C898   1.406       .  A
C898       Br899   1.921       .  S
C903        C904   1.397       .  A
C903        C908   1.394       .  A
C903        H910   1.084       .  S
C904        C905   1.411       .  A
C905        C906   1.395       .  A
C905       Br912   1.920       .  S
C906        C907   1.398       .  A
C906        H911   1.084       .  S
C907        C908   1.409       .  A
C908       Br909   1.915       .  S
C913        C914   1.392       .  A
C913        C918   1.394       .  A
C913        H920   1.084       .  S
C914        C915   1.409       .  A
C915        C916   1.391       .  A
C915       Br922   1.921       .  S
C916        C917   1.399       .  A
C916        H921   1.084       .  S
C917        C918   1.427       .  A
C918       Br919   1.925       .  S
C923        C924   1.400       .  A
C923        C928   1.397       .  A
C923        H930   1.084       .  S
C924        C925   1.404       .  A
C925        C926   1.398       .  A
C925       Br932   1.919       .  S
C926        C927   1.404       .  A
C926        H931   1.084       .  S
C927        C928   1.409       .  A
C928       Br929   1.918       .  S
C933        C934   1.402   1_545  A
C933        C938   1.403       .  A
C933        H940   1.082       .  S
C934        C935   1.410       .  A
C935        C936   1.391       .  A
C935       Br942   1.922       .  S
C936        C937   1.392       .  A
C936        H941   1.072       .  S
C937        C938   1.409   1_565  A
C938       Br939   1.908       .  S
C943        C944   1.405   1_545  A
C943        C948   1.395       .  A
C943        H950   1.081       .  S
C944        C945   1.402       .  A
C945        C946   1.398       .  A
C945       Br952   1.921       .  S
C946        C947   1.412       .  A
C946        H951   1.084       .  S
C947        C948   1.407   1_565  A
C948       Br949   1.915       .  S
C953        C954   1.409       .  A
C953        C958   1.399       .  A
C953        H960   1.084       .  S
C954        C955   1.407   1_565  A
C955        C956   1.393       .  A
C955       Br962   1.921       .  S
C956        C957   1.405   1_545  A
C956        H961   1.084       .  S
C957        C958   1.401       .  A
C958       Br959   1.913       .  S
C963        C964   1.408       .  A
C963        C968   1.397       .  A
C963        H970   1.082       .  S
C964        C965   1.404   1_545  A
C965        C966   1.390       .  A
C965       Br972   1.921       .  S
C966        C967   1.407   1_565  A
C966        H971   1.084       .  S
C967        C968   1.403       .  A
C968       Br969   1.918       .  S
C973        C974   1.407       .  A
C973        C978   1.411       .  A
C973        H980   1.083       .  S
C974        C975   1.413       .  A
C975        C976   1.411       .  A
C975       Br982   1.919       .  S
C976        C977   1.410       .  A
C976        H981   1.082       .  S
C977        C978   1.417       .  A
C978       Br979   1.917       .  S
C983        C984   1.405       .  A
C983        C988   1.409       .  A
C983        H990   1.084       .  S
C984        C985   1.411       .  A
C985        C986   1.408       .  A
C985       Br992   1.919       .  S
C986        C987   1.409       .  A
C986        H991   1.083       .  S
C987        C988   1.416       .  A
C988       Br989   1.915       .  S
C993        C994   1.400       .  A
C993        C998   1.402       .  A
C993       H1000   1.083       .  S
C994        C995   1.414       .  A
C995        C996   1.415       .  A
C995      Br1002   1.915       .  S
C996        C997   1.408       .  A
C996       H1001   1.083       .  S
C997        C998   1.411       .  A
C998       Br999   1.916       .  S
C1003      C1004   1.404       .  A
C1003      C1008   1.405       .  A
C1003      H1010   1.080       .  S
C1004      C1005   1.409       .  A
C1005      C1006   1.406       .  A
C1005     Br1012   1.914       .  S
C1006      C1007   1.405       .  A
C1006      H1011   1.083       .  S
C1007      C1008   1.408       .  A
C1008     Br1009   1.910       .  S
C1013      C1014   1.405   1_455  A
C1013      C1018   1.395       .  A
C1013      H1020   1.084       .  S
C1014      C1015   1.403       .  A
C1015      C1016   1.391       .  A
C1015     Br1022   1.920       .  S
C1016      C1017   1.405       .  A
C1016      H1021   1.084       .  S
C1017      C1018   1.404   1_655  A
C1018     Br1019   1.918       .  S
C1023      C1024   1.400   1_655  A
C1023      C1028   1.395       .  A
C1023      H1030   1.084       .  S
C1024      C1025   1.404       .  A
C1025      C1026   1.395       .  A
C1025     Br1032   1.920       .  S
C1026      C1027   1.405       .  A
C1026      H1031   1.084       .  S
C1027      C1028   1.406   1_455  A
C1028     Br1029   1.916       .  S
C1033      C1034   1.399   1_455  A
C1033      C1038   1.397       .  A
C1033      H1040   1.084       .  S
C1034      C1035   1.411       .  A
C1035      C1036   1.400       .  A
C1035     Br1042   1.916       .  S
C1036      C1037   1.400       .  A
C1036      H1041   1.084       .  S
C1037      C1038   1.410   1_655  A
C1038     Br1039   1.919       .  S
C1043      C1044   1.400       .  A
C1043      C1048   1.396       .  A
C1043      H1050   1.084       .  S
C1044      C1045   1.411   1_655  A
C1045      C1046   1.399       .  A
C1045     Br1052   1.916       .  S
C1046      C1047   1.400   1_455  A
C1046      H1051   1.083       .  S
C1047      C1048   1.413       .  A
C1048     Br1049   1.922       .  S
C1053      C1054   1.404   1_655  A
C1053      C1058   1.400       .  A
C1053      H1060   1.082       .  S
C1054      C1055   1.412       .  A
C1055      C1056   1.392       .  A
C1055     Br1062   1.920       .  S
C1056      C1057   1.397       .  A
C1056      H1061   1.085       .  S
C1057      C1058   1.406   1_455  A
C1058     Br1059   1.917       .  S
C1063      C1064   1.399   1_655  A
C1063      C1068   1.394       .  A
C1063      H1070   1.083       .  S
C1064      C1065   1.404       .  A
C1065      C1066   1.400       .  A
C1065     Br1072   1.917       .  S
C1066      C1067   1.406       .  A
C1066      H1071   1.084       .  S
C1067      C1068   1.403   1_455  A
C1068     Br1069   1.901       .  S
C1073      C1074   1.399       .  A
C1073      C1078   1.400       .  A
C1073      H1080   1.084       .  S
C1074      C1075   1.419       .  A
C1075      C1076   1.404       .  A
C1075     Br1082   1.916       .  S
C1076      C1077   1.400       .  A
C1076      H1081   1.082       .  S
C1077      C1078   1.422       .  A
C1078     Br1079   1.925       .  S
C1083      C1084   1.398       .  A
C1083      C1088   1.390       .  A
C1083      H1090   1.084       .  S
C1084      C1085   1.402       .  A
C1085      C1086   1.396       .  A
C1085     Br1092   1.916       .  S
C1086      C1087   1.404       .  A
C1086      H1091   1.084       .  S
C1087      C1088   1.407       .  A
C1088     Br1089   1.917       .  S
C1093      C1094   1.396       .  A
C1093      C1098   1.389       .  A
C1093      H1100   1.084       .  S
C1094      C1095   1.415       .  A
C1095      C1096   1.405       .  A
C1095     Br1102   1.921       .  S
C1096      C1097   1.404       .  A
C1096      H1101   1.083       .  S
C1097      C1098   1.412       .  A
C1098     Br1099   1.921       .  S
C1103      C1104   1.394       .  A
C1103      C1108   1.390       .  A
C1103      H1110   1.080       .  S
C1104      C1105   1.411       .  A
C1105      C1106   1.398       .  A
C1105     Br1112   1.921       .  S
C1106      C1107   1.400       .  A
C1106      H1111   1.083       .  S
C1107      C1108   1.412       .  A
C1108     Br1109   1.922       .  S
C1113      C1114   1.395       .  A
C1113      C1118   1.391       .  A
C1113      H1120   1.084       .  S
C1114      C1115   1.418       .  A
C1115      C1116   1.397       .  A
C1115     Br1122   1.919       .  S
C1116      C1117   1.396       .  A
C1116      H1121   1.084       .  S
C1117      C1118   1.414       .  A
C1118     Br1119   1.923       .  S
C1123      C1124   1.398       .  A
C1123      C1128   1.397       .  A
C1123      H1130   1.084       .  S
C1124      C1125   1.409       .  A
C1125      C1126   1.394       .  A
C1125     Br1132   1.921       .  S
C1126      C1127   1.398       .  A
C1126      H1131   1.084       .  S
C1127      C1128   1.412       .  A
C1128     Br1129   1.922       .  S
C1133      C1134   1.412       .  A
C1133      C1138   1.396       .  A
C1133      H1140   1.084       .  S
C1134      C1135   1.405       .  A
C1135      C1136   1.393       .  A
C1135     Br1142   1.917       .  S
C1136      C1137   1.407       .  A
C1136      H1141   1.083       .  S
C1137      C1138   1.403       .  A
C1138     Br1139   1.922       .  S
C1143      C1144   1.405       .  A
C1143      C1148   1.390       .  A
C1143      H1150   1.084       .  S
C1144      C1145   1.403       .  A
C1145      C1146   1.401       .  A
C1145     Br1152   1.916       .  S
C1146      C1147   1.411       .  A
C1146      H1151   1.084       .  S
C1147      C1148   1.409       .  A
C1148     Br1149   1.920       .  S
C1153      C1154   1.407       .  A
C1153      C1158   1.413       .  A
C1153      H1160   1.083       .  S
C1154      C1155   1.412   1_655  A
C1155      C1156   1.406       .  A
C1155     Br1162   1.916       .  S
C1156      C1157   1.406       .  A
C1156      H1161   1.083       .  S
C1157      C1158   1.417   1_455  A
C1158     Br1159   1.916       .  S
C1163      C1164   1.407   1_455  A
C1163      C1168   1.411       .  A
C1163      H1170   1.083       .  S
C1164      C1165   1.413       .  A
C1165      C1166   1.410       .  A
C1165     Br1172   1.912       .  S
C1166      C1167   1.407       .  A
C1166      H1171   1.083       .  S
C1167      C1168   1.415   1_655  A
C1168     Br1169   1.918       .  S
C1173      C1174   1.406   1_655  A
C1173      C1178   1.409       .  A
C1173      H1180   1.083       .  S
C1174      C1175   1.411       .  A
C1175      C1176   1.405       .  A
C1175     Br1182   1.915       .  S
C1176      C1177   1.404       .  A
C1176      H1181   1.083       .  S
C1177      C1178   1.411   1_455  A
C1178     Br1179   1.913       .  S
C1183      C1184   1.401   1_655  A
C1183      C1188   1.399       .  A
C1183      H1190   1.081       .  S
C1184      C1185   1.403       .  A
C1185      C1186   1.393       .  A
C1185     Br1192   1.919       .  S
C1186      C1187   1.405       .  A
C1186      H1191   1.084       .  S
C1187      C1188   1.410   1_455  A
C1188     Br1189   1.918       .  S
C1193      C1194   1.397       .  A
C1193      C1198   1.400       .  A
C1193      H1200   1.083       .  S
C1194      C1195   1.413   1_455  A
C1195      C1196   1.394       .  A
C1195     Br1202   1.921       .  S
C1196      C1197   1.399   1_655  A
C1196      H1201   1.084       .  S
C1197      C1198   1.423       .  A
C1198     Br1199   1.919       .  S
C1203      C1204   1.403       .  A
C1203      C1208   1.403       .  A
C1203      H1210   1.084       .  S
C1204      C1205   1.415   1_455  A
C1205      C1206   1.409       .  A
C1205     Br1212   1.914       .  S
C1206      C1207   1.408   1_655  A
C1206      H1211   1.082       .  S
C1207      C1208   1.417       .  A
C1208     Br1209   1.918       .  S
