geometry optimzed in LAMMPS
_audit_creation_date              2020-11-30 
_audit_creation_method            'lammps2cif' 
_symmetry_space_group_name_H-M    'P1' 
_symmetry_Int_Tables_number       1 
_symmetry_cell_setting            triclinic 
loop_ 
_symmetry_equiv_pos_as_xyz 
  x,y,z 
_cell_length_a                    44.99758216 
_cell_length_b                    45.07665007892279 
_cell_length_c                    45.02446640666788 
_cell_angle_alpha                 89.94197759705449 
_cell_angle_beta                  90.02315909555338 
_cell_angle_gamma                 89.99448361301718 
loop_ 
_atom_site_label 
_atom_site_type_symbol 
_atom_site_fract_x 
_atom_site_fract_y 
_atom_site_fract_z 
_atom_site_charge 
C1          C  0.99533636  0.23505282  0.23397335     0.81600
N2          N  0.98132887  0.25643645  0.24967085    -0.76700
C3          C  0.97140026  0.25142596  0.27749500     0.84100
N4          N  0.97540394  0.22427515  0.28980553    -0.76600
C5          C  0.98935581  0.20224445  0.27462222     0.84200
N6          N  0.99997893  0.20774160  0.24656586    -0.78300
O7          O  0.98728819  0.46025970  0.38442707    -0.85100
O8          O  0.99649892  0.46435067  0.55297032    -0.85200
O9          O  0.04442973  0.42828461  0.46525147    -0.86900
O10         O  0.94559574  0.42724920  0.47495071    -0.85700
O11         O  0.91032690  0.46373779  0.47606609    -0.85300
O12         O  0.07940235  0.46504547  0.46226634    -0.86600
O13         O  0.99687970  0.42769590  0.51756157    -0.85100
O14         O  0.98800625  0.42611780  0.42237554    -0.84700
Zr15       Zr  0.99484286  0.45129924  0.46931613     2.84300
O16         O  0.96620507  0.48139499  0.50051224    -1.06700
O17         O  0.02325045  0.48046767  0.43673500    -1.07400
C18         C  0.98493869  0.43361565  0.39488649     1.08000
C19         C  0.99647481  0.43690621  0.54465517     1.08000
C20         C  0.07168700  0.43745173  0.46287148     1.11000
C21         C  0.91823305  0.43630358  0.47690427     1.08700
H22         H  0.03953297  0.47029169  0.50856256     0.34300
O23         O  0.02623609  0.48231305  0.49674869    -1.27600
H24         H  0.94970019  0.46785823  0.42956772     0.34000
O25         O  0.96320701  0.48048846  0.44041826    -1.29300
O26         O  0.99665215  0.56052139  0.55090714    -0.85100
O27         O  0.97831396  0.55635586  0.38450424    -0.86600
O28         O  0.08119973  0.51328381  0.51090906    -0.85200
O29         O  0.91256501  0.51397448  0.52094598    -0.85200
O30         O  0.90784675  0.50891829  0.42494721    -0.84900
O31         O  0.07658921  0.51373466  0.41526527    -0.84700
O32         O  0.04265853  0.59778976  0.46166845    -0.85100
O33         O  0.94428583  0.59568014  0.46713613    -0.84600
O34         O  0.07746768  0.56087973  0.46224737    -0.85600
O35         O  0.90973033  0.55829150  0.46772266    -0.84800
O36         O  0.04772289  0.51305248  0.54915152    -0.85200
O37         O  0.03960573  0.51104381  0.38019423    -0.84900
O38         O  0.94115382  0.50726232  0.38658313    -0.84500
O39         O  0.95014228  0.51345743  0.55523419    -0.85000
O40         O  0.99505826  0.59684005  0.51497974    -0.85200
O41         O  0.98126158  0.59401698  0.41885602    -0.86600
Zr42       Zr  0.99745497  0.51233530  0.52782284     2.83100
Zr43       Zr  0.99155105  0.50935945  0.40746716     2.83500
Zr44       Zr  0.05362814  0.51250718  0.46427896     2.84100
Zr45       Zr  0.93511952  0.51106612  0.47158978     2.83400
Zr46       Zr  0.99397416  0.57222040  0.46665716     2.84200
O47         O  0.96407466  0.53951630  0.43966985    -1.07200
O48         O  0.02547614  0.54264140  0.49584596    -1.06700
C49         C  0.99542460  0.58772110  0.54220530     1.08000
C50         C  0.97463937  0.58344917  0.39303274     1.10600
C51         C  0.07462121  0.51322053  0.53883993     1.08200
C52         C  0.92228027  0.51448478  0.54797618     1.08500
C53         C  0.91432377  0.50781383  0.39703714     1.08100
C54         C  0.06736416  0.51289267  0.38811182     1.07700
C55         C  0.07001530  0.58849994  0.46100850     1.08100
C56         C  0.91716039  0.58586874  0.46635149     1.07600
H57         H  0.03345418  0.55418583  0.42125158     0.34300
O58         O  0.02222993  0.54185039  0.43471494    -1.28300
H59         H  0.95376545  0.55477078  0.51160125     0.34300
O60         O  0.96593946  0.54234511  0.49907488    -1.29600
C61         C  0.99491493  0.70932164  0.77998683     0.81600
N62         N  0.00134690  0.73911038  0.77826542    -0.76700
C63         C  0.00569580  0.75181591  0.75094160     0.84100
N64         N  0.00327246  0.73517398  0.72628667    -0.76600
C65         C  0.99672724  0.70617703  0.72769534     0.84200
N66         N  0.99275876  0.69318111  0.75450700    -0.78300
C67         C  0.00122609  0.26875438  0.75306579     0.81600
N68         N  0.99903627  0.28917611  0.73113680    -0.76700
C69         C  0.99293889  0.28108445  0.70294791     0.84100
N70         N  0.98910610  0.25205546  0.69658004    -0.76600
C71         C  0.99145436  0.23103705  0.71808177     0.84200
N72         N  0.99757852  0.23932051  0.74667377    -0.78300
C73         C  0.99592931  0.70786070  0.23678948     0.81600
N74         N  0.96649417  0.70214617  0.23904128    -0.76700
C75         C  0.94893357  0.71703125  0.25830713     0.84100
N76         N  0.96129341  0.73871791  0.27500111    -0.76600
C77         C  0.99067625  0.74512408  0.27348257     0.84200
N78         N  0.00858632  0.72896405  0.25479828    -0.78300
O79         O  0.00800719  0.01587677  0.42611806    -0.85100
O80         O  0.00418501  0.02715988  0.59468094    -0.85200
O81         O  0.95776572  0.05861706  0.50957743    -0.86900
O82         O  0.05333120  0.05717041  0.51539868    -0.85700
O83         O  0.08952016  0.02146309  0.51933975    -0.85300
O84         O  0.92123429  0.02296959  0.50951318    -0.86600
O85         O  0.00517871  0.06092741  0.55676583    -0.85100
O86         O  0.00867605  0.05479397  0.45898185    -0.84700
Zr87       Zr  0.00561935  0.03352184  0.50953539     2.84300
O88         O  0.03485374  0.00546559  0.54213610    -1.06700
O89         O  0.97658726  0.00172676  0.48033112    -1.07400
C90         C  0.00855947  0.04394145  0.43227172     1.08000
C91         C  0.00478584  0.05402476  0.58471918     1.08000
C92         C  0.93033149  0.05022659  0.50999206     1.11000
C93         C  0.08035306  0.04855531  0.51926229     1.08700
H94         H  0.96171187  0.01879793  0.55214927     0.34300
O95         O  0.97427345  0.00589553  0.54054244    -1.27600
H96         H  0.04996439  0.01336193  0.47028785     0.34000
O97         O  0.03707110  0.00166111  0.48287713    -1.29300
O98         O  0.00433125  0.93190200  0.60110966    -0.85100
O99         O  0.01127794  0.91951009  0.43302441    -0.86600
O100        O  0.91913615  0.97477866  0.55964924    -0.85200
O101        O  0.08863884  0.97444437  0.56549143    -0.85200
O102        O  0.09285747  0.97131090  0.46779073    -0.84900
O103        O  0.92287423  0.96916445  0.46128922    -0.84700
O104        O  0.95715377  0.89034679  0.52480855    -0.85100
O105        O  0.05349312  0.88972086  0.52796765    -0.84600
O106        O  0.92154345  0.92680362  0.52117699    -0.85600
O107        O  0.08934918  0.92588011  0.52558560    -0.84800
O108        O  0.95494316  0.97588903  0.59566900    -0.85200
O109        O  0.96094704  0.96643349  0.42762456    -0.84900
O110        O  0.05711700  0.96944779  0.43169402    -0.84500
O111        O  0.05085619  0.97729995  0.59938120    -0.85000
O112        O  0.00590588  0.89248813  0.56915542    -0.85200
O113        O  0.00880660  0.88490419  0.47029063    -0.86600
Zr114      Zr  0.00370756  0.97777276  0.57278926     2.83100
Zr115      Zr  0.00798531  0.96929119  0.45435993     2.83500
Zr116      Zr  0.94523911  0.97405843  0.51132772     2.84100
Zr117      Zr  0.06599014  0.97331486  0.51567615     2.83400
Zr118      Zr  0.00572370  0.91295283  0.51785638     2.84200
O119        O  0.03728942  0.94073994  0.48675837    -1.07200
O120        O  0.97501989  0.94611486  0.54362056    -1.06700
C121        C  0.00556040  0.90382910  0.59571286     1.08000
C122        C  0.01103673  0.89237223  0.44242805     1.10600
C123        C  0.92758356  0.97469337  0.58723671     1.08200
C124        C  0.07864405  0.97541002  0.59248428     1.08500
C125        C  0.08452340  0.97029693  0.44019158     1.08100
C126        C  0.93303402  0.96663558  0.43438441     1.07700
C127        C  0.93017316  0.89997865  0.52626989     1.08100
C128        C  0.08042922  0.89917709  0.53083744     1.07600
H129        H  0.96438884  0.92779483  0.47309925     0.34300
O130        O  0.97633528  0.94115369  0.48494122    -1.28300
H131        H  0.04564779  0.93496322  0.56041381     0.34300
O132        O  0.03417755  0.94591893  0.54607981    -1.29600
C133        C  0.21655778  0.26935241  0.47690122     0.81600
N134        N  0.20017523  0.24887728  0.49189680    -0.76700
C135        C  0.21150815  0.22172829  0.49820821     0.84100
N136        N  0.23934737  0.21520317  0.48957010    -0.76600
C137        C  0.25608747  0.23501012  0.47463400     0.84200
N138        N  0.24476628  0.26235200  0.46782938    -0.78300
C139        C  0.73494393  0.23533423  0.49842654     0.81600
N140        N  0.74449126  0.26400262  0.49703362    -0.76700
C141        C  0.77382647  0.27012363  0.50176838     0.84100
N142        N  0.79323541  0.24757273  0.50712453    -0.76600
C143        C  0.78383586  0.21896692  0.50793803     0.84200
N144        N  0.75464063  0.21321622  0.50371468    -0.78300
C145        C  0.72056732  0.77339429  0.48170910     0.81600
N146        N  0.73544595  0.78518014  0.50506536    -0.76700
C147        C  0.76142141  0.77352360  0.51458173     0.84100
N148        N  0.77245001  0.74941220  0.50056550    -0.76600
C149        C  0.75805915  0.73689117  0.47730950     0.84200
N150        N  0.73222651  0.74937706  0.46708969    -0.78300
C151        C  0.23801713  0.73524963  0.47425936     0.81600
N152        N  0.22855481  0.74812351  0.49970717    -0.76700
C153        C  0.24177969  0.77257110  0.51077313     0.84100
N154        N  0.26525300  0.78418023  0.49618285    -0.76600
C155        C  0.27540780  0.77206482  0.47063961     0.84200
N156        N  0.26131025  0.74767162  0.45889476    -0.78300
C157        C  0.74225693  0.96809729  0.23780463     0.81600
N158        N  0.73091247  0.99353091  0.24891445    -0.76700
C159        C  0.74412676  0.00770662  0.27167139     0.84100
N160        N  0.76937656  0.99631212  0.28318742    -0.76600
C161        C  0.78119557  0.97077177  0.27269359     0.84200
N162        N  0.76730615  0.95593743  0.25008191    -0.78300
O163        O  0.44757965  0.09538735  0.47117201    -0.85100
O164        O  0.45177454  0.92797042  0.45824003    -0.85200
O165        O  0.41533006  0.02188325  0.41863722    -0.86900
O166        O  0.41335276  0.00213502  0.51422038    -0.85700
O167        O  0.44964958  0.99918226  0.54991315    -0.85300
O168        O  0.45227510  0.02924843  0.38405611    -0.86600
O169        O  0.41430856  0.96245491  0.45956872    -0.85100
O170        O  0.41187463  0.05934368  0.46893426    -0.84700
Zr171      Zr  0.43784569  0.01128857  0.46643112     2.84300
O172        O  0.46849261  0.97965021  0.49381221    -1.06700
O173        O  0.46856790  0.04407893  0.44040084    -1.07400
C174        C  0.42024056  0.08687172  0.46953269     1.08000
C175        C  0.42398583  0.93543119  0.45752085     1.08000
C176        C  0.42494479  0.02957263  0.39276472     1.11000
C177        C  0.42252223  0.99751281  0.54108865     1.08700
H178        H  0.45739547  0.97418473  0.41951798     0.34300
O179        O  0.46949344  0.98551848  0.43373457    -1.27600
H180        H  0.45288032  0.05008397  0.51339263     0.34000
O181        O  0.46583758  0.03944993  0.50022488    -1.29300
O182        O  0.54921964  0.93152049  0.45845812    -0.85100
O183        O  0.54350219  0.09833525  0.47669415    -0.86600
O184        O  0.50078931  0.97230469  0.37846229    -0.85200
O185        O  0.49878612  0.95697421  0.54704926    -0.85200
O186        O  0.49490294  0.05362638  0.55611232    -0.84900
O187        O  0.49983741  0.07052994  0.38808735    -0.84700
O188        O  0.58333964  0.02379904  0.42288628    -0.85100
O189        O  0.58137174  0.01163279  0.51911764    -0.84600
O190        O  0.54894589  0.02626015  0.38528348    -0.85600
O191        O  0.54372002  0.00729615  0.55290336    -0.84800
O192        O  0.50145215  0.93342738  0.41164211    -0.85200
O193        O  0.49724829  0.10152150  0.42823452    -0.84900
O194        O  0.49497523  0.09268639  0.52364439    -0.84500
O195        O  0.49934935  0.92404728  0.50828041    -0.85000
O196        O  0.58514292  0.96730438  0.46307457    -0.85200
O197        O  0.58110881  0.06395174  0.47568277    -0.86600
Zr198      Zr  0.49976688  0.95346752  0.46192240     2.83100
Zr199      Zr  0.49633038  0.07222973  0.47360124     2.83500
Zr200      Zr  0.49997697  0.01907128  0.40749901     2.84100
Zr201      Zr  0.49703088  0.00747158  0.52695120     2.83400
Zr202      Zr  0.55859679  0.01460658  0.46973161     2.84200
O203        O  0.52705658  0.04100886  0.50143037    -1.07200
O204        O  0.52996677  0.98709056  0.43582823    -1.06700
C205        C  0.57663440  0.94010276  0.45914034     1.08000
C206        C  0.57120547  0.09091362  0.47716772     1.10600
C207        C  0.50148441  0.94422996  0.38505528     1.08200
C208        C  0.49919610  0.93029706  0.53642599     1.08500
C209        C  0.49475393  0.08178809  0.55018218     1.08100
C210        C  0.49862480  0.09674113  0.40001288     1.07700
C211        C  0.57569445  0.02809443  0.39560242     1.08100
C212        C  0.57136589  0.00922986  0.54596507     1.07600
H213        H  0.54007845  0.06053670  0.43150737     0.34300
O214        O  0.52812717  0.04636893  0.44180183    -1.28300
H215        H  0.54111506  0.96765046  0.50691413     0.34300
O216        O  0.52873312  0.98078083  0.49555941    -1.29600
C217        C  0.28373235  0.96332310  0.76857554     0.81600
N218        N  0.30131762  0.96403260  0.74404719    -0.76700
C219        C  0.28942652  0.96559394  0.71646969     0.84100
N220        N  0.25960963  0.96620816  0.71354907    -0.76600
C221        C  0.24158226  0.96547535  0.73757328     0.84200
N222        N  0.25350185  0.96420111  0.76545281    -0.78300
C223        C  0.72256178  0.97678960  0.76712040     0.81600
N224        N  0.70276641  0.98441426  0.74567397    -0.76700
C225        C  0.71197938  0.99360676  0.71864223     0.84100
N226        N  0.74132174  0.99493137  0.71280956    -0.76600
C227        C  0.76171091  0.98704262  0.73350374     0.84200
N228        N  0.75242090  0.97772664  0.76099474    -0.78300
C229        C  0.26437546  0.01304593  0.23746881     0.81600
N230        N  0.27475369  0.03947856  0.24707975    -0.76700
C231        C  0.26435418  0.05238155  0.27202426     0.84100
N232        N  0.24238618  0.03858671  0.28716281    -0.76600
C233        C  0.23114594  0.01221562  0.27792091     0.84200
N234        N  0.24283632  0.99865607  0.25336462    -0.78300
O235        O  0.58815816  0.97141313  0.06462006    -0.85100
O236        O  0.42054871  0.97416006  0.06231275    -0.85200
O237        O  0.50832560  0.02295923  0.09827699    -0.86900
O238        O  0.48969679  0.92617270  0.09734304    -0.85700
O239        O  0.49496831  0.88932878  0.06245380    -0.85300
O240        O  0.50937143  0.05740537  0.06059553    -0.86600
O241        O  0.45479388  0.97701895  0.09974319    -0.85100
O242        O  0.55199744  0.96896346  0.10066084    -0.84700
Zr243      Zr  0.50392626  0.97387273  0.07547404     2.84300
O244        O  0.47613354  0.94401280  0.04383491    -1.06700
O245        O  0.53437500  0.00345648  0.04512595    -1.07400
C246        C  0.57940152  0.96876519  0.09186844     1.08000
C247        C  0.42763765  0.97606823  0.09003267     1.08000
C248        C  0.51060958  0.04967328  0.08801312     1.11000
C249        C  0.48690910  0.89910904  0.08816645     1.08700
H250        H  0.46220952  0.01646310  0.05653734     0.34300
O251        O  0.47457051  0.00373688  0.04450953    -1.27600
H252        H  0.54661696  0.93060274  0.05887668     0.34000
O253        O  0.53482670  0.94328450  0.04620447    -1.29300
O254        O  0.42037253  0.97090287  0.96641512    -0.85100
O255        O  0.59054753  0.97247665  0.96768355    -0.86600
O256        O  0.45624600  0.05686158  0.01477754    -0.85200
O257        O  0.45790298  0.88791595  0.01675773    -0.85200
O258        O  0.55543305  0.88877527  0.01916563    -0.84900
O259        O  0.55360177  0.05800646  0.01100111    -0.84700
O260        O  0.50191980  0.02150385  0.92981413    -0.85100
O261        O  0.50847548  0.92640031  0.93110850    -0.84600
O262        O  0.50142046  0.05704136  0.96618945    -0.85600
O263        O  0.50842920  0.88943481  0.96644597    -0.84800
O264        O  0.42039908  0.02089884  0.01321153    -0.85200
O265        O  0.58925147  0.02199118  0.01439756    -0.84900
O266        O  0.59003097  0.92586698  0.01684816    -0.84500
O267        O  0.42215602  0.92410523  0.01999595    -0.85000
O268        O  0.45633801  0.97161311  0.93052301    -0.85200
O269        O  0.55509149  0.97436124  0.93113078    -0.86600
Zr270      Zr  0.44537881  0.97286015  0.01431656     2.83100
Zr271      Zr  0.56482591  0.97352400  0.01568871     2.83500
Zr272      Zr  0.50501773  0.03281501  0.01387036     2.84100
Zr273      Zr  0.50611480  0.91301978  0.01512225     2.83400
Zr274      Zr  0.50542032  0.97362549  0.95479302     2.84200
O275        O  0.53550521  0.94361675  0.98510902    -1.07200
O276        O  0.47480615  0.00313728  0.98414833    -1.06700
C277        C  0.42878772  0.97078248  0.93900050     1.08000
C278        C  0.58255631  0.97334106  0.94006544     1.10600
C279        C  0.42879462  0.04830274  0.01408614     1.08200
C280        C  0.43074377  0.89670660  0.02018856     1.08500
C281        C  0.58270962  0.89825756  0.01880244     1.08100
C282        C  0.58110820  0.04939796  0.01179815     1.07700
C283        C  0.50083096  0.04866637  0.93886162     1.08100
C284        C  0.50982526  0.89922421  0.93952119     1.07600
H285        H  0.54789684  0.01568899  0.97196913     0.34300
O286        O  0.53561057  0.00336030  0.98449276    -1.28300
H287        H  0.46349756  0.92996811  0.97230570     0.34300
O288        O  0.47571363  0.94264212  0.98455517    -1.29600
C289        C  0.51849977  0.25555947  0.25228286     0.81600
N290        N  0.52309418  0.23253705  0.23372748    -0.76700
C291        C  0.52231075  0.23614299  0.20409888     0.84100
N292        N  0.51712714  0.26334434  0.19258654    -0.76600
C293        C  0.51288880  0.28698497  0.21073343     0.84200
N294        N  0.51298411  0.28318619  0.24094065    -0.78300
C295        C  0.47866796  0.73637939  0.20765991     0.81600
N296        N  0.49287809  0.75323849  0.22870801    -0.76700
C297        C  0.47677835  0.77362216  0.24470635     0.84100
N298        N  0.44773031  0.77819126  0.23790258    -0.76600
C299        C  0.43398166  0.76253434  0.21615055     0.84200
N300        N  0.44963416  0.74133796  0.20185209    -0.78300
C301        C  0.50447454  0.73878862  0.73454043     0.81600
N302        N  0.51184019  0.75713209  0.75700446    -0.76700
C303        C  0.51346128  0.78669407  0.75308416     0.84100
N304        N  0.50731860  0.79839257  0.72617612    -0.76600
C305        C  0.50014776  0.78066271  0.70293305     0.84200
N306        N  0.49858652  0.75042181  0.70695098    -0.78300
C307        C  0.50392197  0.21532763  0.72990384     0.81600
N308        N  0.50696499  0.19623530  0.75302152    -0.76700
C309        C  0.50414784  0.20571230  0.78141072     0.84100
N310        N  0.49843402  0.23463797  0.78665858    -0.76600
C311        C  0.49566320  0.25425338  0.76402103     0.84200
N312        N  0.49802392  0.24463361  0.73531434    -0.78300
O313        O  0.01297394  0.38491651  0.05176702    -0.85100
O314        O  0.01415963  0.55238439  0.06664155    -0.85200
O315        O  0.06392958  0.45537594  0.08801297    -0.86900
O316        O  0.96702435  0.46061656  0.09769781    -0.85700
O317        O  0.92866081  0.46342270  0.06384206    -0.85300
O318        O  0.09835498  0.46293330  0.05101112    -0.86600
O319        O  0.01697057  0.51397513  0.10009720    -0.85100
O320        O  0.01485893  0.41667562  0.09133536    -0.84700
Zr321      Zr  0.01367876  0.46762222  0.07099214     2.84300
O322        O  0.98079774  0.49986263  0.04604587    -1.06700
O323        O  0.04133962  0.44222580  0.03534291    -1.07400
C324        C  0.01456097  0.39020850  0.07997769     1.08000
C325        C  0.01694969  0.54195901  0.09323783     1.08000
C326        C  0.09056981  0.45431956  0.07721712     1.11000
C327        C  0.93947036  0.45845050  0.08993787     1.08700
H328        H  0.05547514  0.51164174  0.05460421     0.34300
O329        O  0.04209854  0.50048257  0.04187408    -1.27600
H330        H  0.97051857  0.42655201  0.05132185     0.34000
O331        O  0.98158972  0.44073952  0.03990341    -1.29300
O332        O  0.00470096  0.56230571  0.97130253    -0.85100
O333        O  0.00730347  0.39446211  0.95550948    -0.86600
O334        O  0.09328149  0.52432421  0.01048385    -0.85200
O335        O  0.92453888  0.52220407  0.01960829    -0.85200
O336        O  0.92559673  0.42272284  0.00967251    -0.84900
O337        O  0.09461123  0.42520022  0.00352074    -0.84700
O338        O  0.05056740  0.48075029  0.92382460    -0.85100
O339        O  0.95652893  0.48177371  0.93118320    -0.84600
O340        O  0.09018741  0.47689283  0.95555986    -0.85600
O341        O  0.92154308  0.47805704  0.96813713    -0.84800
O342        O  0.05588063  0.55848347  0.01480080    -0.85200
O343        O  0.05791040  0.38982741  0.00311954    -0.84900
O344        O  0.96250048  0.38788539  0.00594985    -0.84500
O345        O  0.96156422  0.55700004  0.02075412    -0.85000
O346        O  0.00344059  0.52981892  0.93225153    -0.85200
O347        O  0.00383731  0.43300029  0.92266615    -0.86600
Zr348      Zr  0.00919083  0.53229954  0.01667255     2.83100
Zr349      Zr  0.00977140  0.41403550  0.00579448     2.83500
Zr350      Zr  0.07031600  0.47436474  0.00637582     2.84100
Zr351      Zr  0.94875581  0.47262817  0.01477698     2.83400
Zr352      Zr  0.00550706  0.47880822  0.95204476     2.84200
O353        O  0.97720716  0.44573620  0.98042668    -1.07200
O354        O  0.03781038  0.50666707  0.98163988    -1.06700
C355        C  0.00309497  0.55643285  0.94320620     1.08000
C356        C  0.00524754  0.40498606  0.92891323     1.10600
C357        C  0.08352712  0.55138113  0.01307617     1.08200
C358        C  0.93391577  0.54953140  0.02085446     1.08500
C359        C  0.93486375  0.39546732  0.00709792     1.08100
C360        C  0.08543159  0.39787925  0.00313962     1.07700
C361        C  0.07852292  0.47891064  0.92930556     1.08100
C362        C  0.92964995  0.48190635  0.94086330     1.07600
H363        H  0.04939444  0.43513738  0.96236779     0.34300
O364        O  0.03804726  0.44644761  0.97649535    -1.28300
H365        H  0.96433164  0.51883494  0.97582216     0.34300
O366        O  0.97722358  0.50533776  0.98622468    -1.29600
C367        C  0.76381598  0.48962171  0.23839943     0.81600
N368        N  0.73946759  0.50010799  0.22350162    -0.76700
C369        C  0.73053097  0.48618207  0.19799139     0.84100
N370        N  0.74652929  0.46286398  0.18753077    -0.76600
C371        C  0.77081390  0.45273766  0.20205678     0.84200
N372        N  0.77917552  0.46626286  0.22744399    -0.78300
C373        C  0.26924087  0.48025541  0.20523625     0.81600
N374        N  0.25595518  0.49553661  0.22806731    -0.76700
C375        C  0.23297324  0.48250669  0.24334318     0.84100
N376        N  0.22304634  0.45546053  0.23487035    -0.76600
C377        C  0.23521243  0.44071745  0.21177954     0.84200
N378        N  0.25828252  0.45333840  0.19726472    -0.78300
C379        C  0.26135475  0.50072853  0.73798752     0.81600
N380        N  0.24038065  0.49459216  0.75855169    -0.76700
C381        C  0.21119236  0.49623760  0.75203032     0.84100
N382        N  0.20270110  0.50416327  0.72434316    -0.76600
C383        C  0.22324234  0.50998086  0.70303147     0.84200
N384        N  0.25294407  0.50848293  0.70978193    -0.78300
C385        C  0.78160562  0.52353473  0.72121148     0.81600
N386        N  0.75178025  0.51818894  0.72451941    -0.76700
C387        C  0.74098291  0.51128090  0.75209796     0.84100
N388        N  0.75979366  0.50947647  0.77545520    -0.76600
C389        C  0.78908741  0.51468393  0.77224574     0.84200
N390        N  0.79977379  0.52170248  0.74514801    -0.78300
C391        C  0.23960671  0.24643065  0.02879348     0.81600
N392        N  0.25644613  0.27108209  0.02923206    -0.76700
C393        C  0.28615880  0.26966516  0.03101119     0.84100
N394        N  0.29946432  0.24288411  0.03317784    -0.76600
C395        C  0.28313755  0.21750860  0.03330180     0.84200
N396        N  0.25280763  0.21911759  0.03026755    -0.78300
O397        O  0.49629465  0.46994810  0.05750587    -0.85100
O398        O  0.49280954  0.45516069  0.88884384    -0.85200
O399        O  0.44542329  0.42865677  0.97904937    -0.86900
O400        O  0.53947417  0.42327875  0.97382733    -0.85700
O401        O  0.57768875  0.45673962  0.97000133    -0.85300
O402        O  0.41005509  0.46514656  0.97542562    -0.86600
O403        O  0.49042691  0.42175018  0.92704259    -0.85100
O404        O  0.49468070  0.43079842  0.02522966    -0.84700
Zr405      Zr  0.49372536  0.45044361  0.97382834     2.84300
O406        O  0.52487738  0.47588244  0.94083973    -1.06700
O407        O  0.46524951  0.48392441  0.00135559    -1.07400
C408        C  0.49566319  0.44185004  0.05186136     1.08000
C409        C  0.49061834  0.42847161  0.89897134     1.08000
C410        C  0.41843117  0.43799088  0.97896102     1.11000
C411        C  0.56715287  0.43006836  0.97222729     1.08700
H412        H  0.45117151  0.46567385  0.93044665     0.34300
O413        O  0.46419884  0.47856688  0.94155855    -1.27600
H414        H  0.53757304  0.46968900  0.01420159     0.34000
O415        O  0.52552607  0.48138482  0.00089415    -1.29300
O416        O  0.49502314  0.55067402  0.88017814    -0.85100
O417        O  0.49994365  0.56510203  0.04892409    -0.86600
O418        O  0.41050634  0.50871414  0.92048300    -0.85200
O419        O  0.58015186  0.50300984  0.91883901    -0.85200
O420        O  0.58187295  0.51153592  0.01630153    -0.84900
O421        O  0.41133802  0.51708528  0.01817112    -0.84700
O422        O  0.45152818  0.59475345  0.95501904    -0.85100
O423        O  0.54772267  0.59147915  0.95831318    -0.84600
O424        O  0.41419324  0.56021256  0.95957753    -0.85600
O425        O  0.58217743  0.55382039  0.96018934    -0.84800
O426        O  0.44707060  0.50504662  0.88523816    -0.85200
O427        O  0.44861581  0.51771233  0.05271416    -0.84900
O428        O  0.54542856  0.51674250  0.05145736    -0.84500
O429        O  0.54327589  0.50186743  0.88382734    -0.85000
O430        O  0.49782879  0.58970407  0.91266528    -0.85200
O431        O  0.50056344  0.59911255  0.01108724    -0.86600
Zr432      Zr  0.49545869  0.50491342  0.90930606     2.83100
Zr433      Zr  0.49677430  0.51534767  0.02794114     2.83500
Zr434      Zr  0.43573800  0.51216061  0.96924217     2.84100
Zr435      Zr  0.55654663  0.50697189  0.96792879     2.83400
Zr436      Zr  0.49858988  0.57005771  0.96392758     2.84200
O437        O  0.52813075  0.54103542  0.99547994    -1.07200
O438        O  0.46741606  0.53811333  0.93734561    -1.06700
C439        C  0.49604596  0.57872534  0.88606248     1.08000
C440        C  0.50138417  0.59202835  0.03913403     1.10600
C441        C  0.41953550  0.50640537  0.89318414     1.08200
C442        C  0.57094130  0.50195887  0.89157531     1.08500
C443        C  0.57293615  0.51497394  0.04348610     1.08100
C444        C  0.42084264  0.51804740  0.04538680     1.07700
C445        C  0.42412581  0.58643976  0.95401586     1.08100
C446        C  0.57443173  0.58120809  0.95668423     1.07600
H447        H  0.45507548  0.55817413  0.00778074     0.34300
O448        O  0.46692388  0.54423311  0.99643896    -1.28300
H449        H  0.53914953  0.54658513  0.92238712     0.34300
O450        O  0.52686126  0.53598728  0.93634822    -1.29600
C451        C  0.74580704  0.74913895  0.00392265     0.81600
N452        N  0.73096589  0.73549411  0.98165079    -0.76700
C453        C  0.74144052  0.71042132  0.96913537     0.84100
N454        N  0.76736997  0.69900858  0.97899825    -0.76600
C455        C  0.78273180  0.71196762  0.00135537     0.84200
N456        N  0.77169938  0.73707307  0.01456655    -0.78300
C457        C  0.26853345  0.75332506  0.00585713     0.81600
N458        N  0.28173257  0.74540549  0.98010647    -0.76700
C459        C  0.27068256  0.72360533  0.96284153     0.84100
N460        N  0.24537694  0.70987890  0.97155063    -0.76600
C461        C  0.23151990  0.71736094  0.99723241     0.84200
N462        N  0.24364472  0.73865798  0.01519117    -0.78300
C463        C  0.76634155  0.25198454  0.98777100     0.81600
N464        N  0.74492134  0.27298478  0.98507708    -0.76700
C465        C  0.71580307  0.26562974  0.98617818     0.84100
N466        N  0.70795609  0.23697386  0.98992317    -0.76600
C467        C  0.72875767  0.21546257  0.99268633     0.84200
N468        N  0.75834239  0.22285579  0.99186153    -0.78300
C469        C  0.63495091  0.38226085  0.95962175     0.14100
C470        C  0.62730805  0.35662384  0.97558064     0.01000
C471        C  0.59977062  0.35484431  0.98989881     0.16000
C472        C  0.58032626  0.37888701  0.98900551     0.25400
C473        C  0.58802173  0.40491213  0.97327846    -0.40900
C474        C  0.61532637  0.40616731  0.95819820     0.32500
C475        C  0.64914481  0.33273896  0.97906375     0.01100
F476        F  0.59227005  0.33030489  0.00575018    -0.13200
F477        F  0.62284157  0.43026889  0.94173134    -0.13700
C478        C  0.67536545  0.33830600  0.99489690     0.16000
C479        C  0.69710996  0.31645169  0.99724212     0.25400
C480        C  0.69276460  0.28861189  0.98389450    -0.40900
C481        C  0.66605480  0.28280219  0.96867003     0.32400
C482        C  0.64431714  0.30478270  0.96630843     0.14100
F483        F  0.67969107  0.36494193  0.00829604    -0.13200
F484        F  0.66144374  0.25623273  0.95523777    -0.13700
F485        F  0.72207921  0.32230951  0.01312582    -0.16000
F486        F  0.61894351  0.29907493  0.95100051    -0.14600
F487        F  0.66160355  0.38411989  0.94561262    -0.14600
F488        F  0.55443755  0.37703318  0.00442216    -0.16000
C489        C  0.38413875  0.64602129  0.91090152     0.14100
C490        C  0.35801744  0.64865488  0.92771276     0.01000
C491        C  0.35403816  0.63087372  0.95311181     0.16000
C492        C  0.37576354  0.61080569  0.96167014     0.25400
C493        C  0.40204492  0.60845024  0.94528448    -0.40900
C494        C  0.40609469  0.62581951  0.91960885     0.32500
C495        C  0.33548265  0.67138107  0.92130099     0.01100
F496        F  0.32934562  0.63360503  0.97024244    -0.13200
F497        F  0.43075875  0.62245932  0.90254828    -0.13700
C498        C  0.30570740  0.66253477  0.91911926     0.16000
C499        C  0.28321968  0.68134431  0.92897637     0.25400
C500        C  0.29039643  0.70957216  0.94043899    -0.40900
C501        C  0.31966772  0.72035913  0.93642082     0.32400
C502        C  0.34218086  0.70113348  0.92725461     0.14100
F503        F  0.29894763  0.63395032  0.91240853    -0.13200
F504        F  0.32747072  0.74812960  0.94515275    -0.13700
F505        F  0.25530386  0.67014350  0.93116665    -0.16000
F506        F  0.37089334  0.71034220  0.92869693    -0.14600
F507        F  0.38817654  0.66271258  0.88611688    -0.14600
F508        F  0.37142200  0.59408243  0.98641250    -0.16000
C509        C  0.69794367  0.64436647  0.94523455     0.14100
C510        C  0.67234980  0.65805677  0.93378845     0.01000
C511        C  0.67295112  0.68844497  0.92700566     0.16000
C512        C  0.69728048  0.70566627  0.93568553     0.25400
C513        C  0.72143919  0.69238007  0.95056203    -0.40900
C514        C  0.72254062  0.66126962  0.95296405     0.32500
C515        C  0.64422251  0.64137438  0.93426592     0.01100
F516        F  0.64921080  0.70165788  0.91387784    -0.13200
F517        F  0.74577975  0.64729741  0.96620370    -0.13700
C518        C  0.62112095  0.65061345  0.95320854     0.16000
C519        C  0.59799981  0.63119693  0.96023916     0.25400
C520        C  0.59790777  0.60228408  0.94863933    -0.40900
C521        C  0.61993592  0.59381801  0.92819736     0.32400
C522        C  0.64274877  0.61335124  0.92085766     0.14100
F523        F  0.62204450  0.67758974  0.96659620    -0.13200
F524        F  0.61941133  0.56658003  0.91534070    -0.13700
F525        F  0.57667436  0.64005257  0.97965535    -0.16000
F526        F  0.66432058  0.60442130  0.90177445    -0.14600
F527        F  0.69798140  0.61503612  0.95218990    -0.14600
F528        F  0.69629895  0.73549189  0.93147478    -0.16000
C529        C  0.35152287  0.39936143  0.01037238     0.14100
C530        C  0.35704575  0.37018237  0.00123488     0.01000
C531        C  0.38121133  0.36376205  0.98279014     0.16000
C532        C  0.40057785  0.38621234  0.97445222     0.25400
C533        C  0.39571078  0.41545952  0.98423786    -0.40900
C534        C  0.37074026  0.42202762  0.00180641     0.32500
C535        C  0.33802586  0.34605403  0.01130659     0.01100
F536        F  0.38626720  0.33560324  0.97332154    -0.13200
F537        F  0.36605764  0.44987942  0.01229005    -0.13700
C538        C  0.30901390  0.34388369  0.00051286     0.16000
C539        C  0.29175210  0.31943418  0.00784046     0.25400
C540        C  0.30349561  0.29673302  0.02603972    -0.40900
C541        C  0.33234941  0.29953431  0.03757926     0.32400
C542        C  0.34954629  0.32413441  0.03019038     0.14100
F543        F  0.29798150  0.36470648  0.98165968    -0.13200
F544        F  0.34391409  0.27848786  0.05581504    -0.13700
F545        F  0.26419225  0.31731656  0.99568322    -0.16000
F546        F  0.37764279  0.32641915  0.04096714    -0.14600
F547        F  0.32837531  0.40554680  0.02868833    -0.14600
F548        F  0.42443772  0.37922987  0.95733707    -0.16000
C549        C  0.64521283  0.49656992  0.85059875     0.14100
C550        C  0.63693151  0.50277441  0.82107161     0.01000
C551        C  0.60693667  0.50847982  0.81478961     0.16000
C552        C  0.58553421  0.50767035  0.83742329     0.25400
C553        C  0.59368653  0.50158069  0.86721056    -0.40900
C554        C  0.62396569  0.49605230  0.87336951     0.32500
C555        C  0.65969951  0.50287570  0.79700699     0.01100
F556        F  0.59822452  0.51440821  0.78652617    -0.13200
F557        F  0.63322740  0.48992541  0.90141647    -0.13700
C558        C  0.67784783  0.47787433  0.79274274     0.16000
C559        C  0.70238236  0.47928385  0.77377447     0.25400
C560        C  0.70937564  0.50570886  0.75867083    -0.40900
C561        C  0.68955308  0.52971344  0.76042119     0.32400
C562        C  0.66496129  0.52842108  0.77965414     0.14100
F563        F  0.67295164  0.45263302  0.80848570    -0.13200
F564        F  0.69587331  0.55551787  0.74619213    -0.13700
F565        F  0.72127027  0.45580285  0.77260979    -0.16000
F566        F  0.64801018  0.55304917  0.78337535    -0.14600
F567        F  0.67413804  0.49142039  0.85754124    -0.14600
F568        F  0.55683779  0.51325883  0.82997425    -0.16000
C569        C  0.32742535  0.52963650  0.77849982     0.14100
C570        C  0.33648723  0.50382342  0.79365738     0.01000
C571        C  0.32497091  0.47630499  0.78451875     0.16000
C572        C  0.30325573  0.47484703  0.76225290     0.25400
C573        C  0.29235692  0.50087161  0.74880645    -0.40900
C574        C  0.30564310  0.52812274  0.75611645     0.32500
C575        C  0.35753859  0.50523467  0.81924876     0.01100
F576        F  0.33310517  0.45100742  0.79876987    -0.13200
F577        F  0.29542503  0.55359085  0.74365398    -0.13700
C578        C  0.34972155  0.51938626  0.84605051     0.16000
C579        C  0.36933856  0.51932335  0.87047932     0.25400
C580        C  0.39719870  0.50509192  0.86853688    -0.40900
C581        C  0.40447639  0.49049558  0.84175115     0.32400
C582        C  0.38506177  0.49078925  0.81747601     0.14100
F583        F  0.32286798  0.53285202  0.84872384    -0.13200
F584        F  0.43036218  0.47535089  0.83906703    -0.13700
F585        F  0.36129438  0.53367955  0.89572240    -0.16000
F586        F  0.39329430  0.47702338  0.79196100    -0.14600
F587        F  0.33873523  0.55644314  0.78624531    -0.14600
F588        F  0.29081123  0.44819164  0.75569997    -0.16000
C589        C  0.34746143  0.52021573  0.08930891     0.14100
C590        C  0.35754473  0.51652075  0.11865462     0.01000
C591        C  0.38823486  0.51560176  0.12391265     0.16000
C592        C  0.40852660  0.51715136  0.10038709     0.25400
C593        C  0.39870759  0.51910599  0.07051187    -0.40900
C594        C  0.36771787  0.52116811  0.06544271     0.32500
C595        C  0.33646203  0.50914071  0.14315471     0.01100
F596        F  0.39863915  0.51233121  0.15204236    -0.13200
F597        F  0.35679268  0.52342178  0.03742476    -0.13700
C598        C  0.33625864  0.48016567  0.15451946     0.16000
C599        C  0.31579676  0.47179461  0.17629862     0.25400
C600        C  0.29451233  0.49205955  0.18720320    -0.40900
C601        C  0.29546949  0.52156173  0.17678086     0.32400
C602        C  0.31636498  0.53003680  0.15492900     0.14100
F603        F  0.35523534  0.45945899  0.14354768    -0.13200
F604        F  0.27519525  0.54166643  0.18637720    -0.13700
F605        F  0.31625353  0.44329943  0.18613509    -0.16000
F606        F  0.31670502  0.55845007  0.14493597    -0.14600
F607        F  0.31785773  0.52156934  0.08363683    -0.14600
F608        F  0.43789425  0.51577564  0.10718261    -0.16000
C609        C  0.66553096  0.48148941  0.14529180     0.14100
C610        C  0.66054199  0.51125933  0.13775156     0.01000
C611        C  0.67666646  0.53353005  0.15265619     0.16000
C612        C  0.69833961  0.52582788  0.17399733     0.25400
C613        C  0.70425656  0.49576301  0.18036010    -0.40900
C614        C  0.68696390  0.47383704  0.16630225     0.32500
C615        C  0.63784037  0.51793779  0.11468148     0.01100
F616        F  0.67150894  0.56255835  0.14648790    -0.13200
F617        F  0.69107870  0.44466469  0.17266656    -0.13700
C618        C  0.60803182  0.51099518  0.12042282     0.16000
C619        C  0.58713281  0.51040186  0.09746837     0.25400
C620        C  0.59548933  0.51679765  0.06786764    -0.40900
C621        C  0.62526403  0.52505915  0.06233929     0.32400
C622        C  0.64617179  0.52582982  0.08560847     0.14100
F623        F  0.59940005  0.50345345  0.14832383    -0.13200
F624        F  0.63426917  0.53215801  0.03444534    -0.13700
F625        F  0.55891775  0.50216178  0.10427038    -0.16000
F626        F  0.67481666  0.53306198  0.07952289    -0.14600
F627        F  0.64994042  0.45958666  0.13165347    -0.14600
F628        F  0.71431210  0.54757474  0.18739621    -0.16000
C629        C  0.85254202  0.66742099  0.99436294     0.14100
C630        C  0.85140779  0.64976401  0.02002029     0.01000
C631        C  0.83052067  0.65674429  0.04225718     0.16000
C632        C  0.80988937  0.67989227  0.03791961     0.25400
C633        C  0.80989669  0.69629100  0.01129524    -0.40900
C634        C  0.83192223  0.69025211  0.98995909     0.32500
C635        C  0.87168349  0.62373914  0.02264625     0.01100
F636        F  0.82943908  0.64049913  0.06763489    -0.13200
F637        F  0.83201518  0.70512033  0.96371206    -0.13700
C638        C  0.90207644  0.62820179  0.02750935     0.16000
C639        C  0.92194812  0.60427046  0.02732393     0.25400
C640        C  0.91198141  0.57482517  0.02203979    -0.40900
C641        C  0.88135649  0.57061328  0.01647788     0.32400
C642        C  0.86147770  0.59478879  0.01693395     0.14100
F643        F  0.91269668  0.65608069  0.03177347    -0.13200
F644        F  0.87071770  0.54338187  0.00927884    -0.13700
F645        F  0.95115824  0.61039873  0.03176943    -0.16000
F646        F  0.83239074  0.59013863  0.01041950    -0.14600
F647        F  0.87259307  0.66133698  0.97268226    -0.14600
F648        F  0.78839153  0.68460490  0.05853277    -0.16000
C649        C  0.86279297  0.35313336  0.99094873     0.14100
C650        C  0.87136237  0.32334911  0.99494043     0.01000
C651        C  0.90059027  0.31741170  0.00422859     0.16000
C652        C  0.92082781  0.34072161  0.00916317     0.25400
C653        C  0.91247720  0.37073794  0.00449772    -0.40900
C654        C  0.88291313  0.37646967  0.99581416     0.32500
C655        C  0.84894654  0.29906567  0.99102984     0.01100
F656        F  0.90971495  0.28895192  0.00814083    -0.13200
F657        F  0.87334798  0.40471101  0.99162465    -0.13700
C658        C  0.83367570  0.29580313  0.96393250     0.16000
C659        C  0.80806548  0.27807376  0.96218270     0.25400
C660        C  0.79768282  0.26239548  0.98720119    -0.40900
C661        C  0.81433253  0.26370798  0.01359860     0.32400
C662        C  0.83982053  0.28174608  0.01545721     0.14100
F663        F  0.84271598  0.31103201  0.93951168    -0.13200
F664        F  0.80418789  0.25002255  0.03846579    -0.13700
F665        F  0.79213242  0.27787023  0.93655485    -0.16000
F666        F  0.85409349  0.28424155  0.04189447    -0.14600
F667        F  0.83451949  0.35972492  0.98274702    -0.14600
F668        F  0.94850633  0.33374421  0.01899182    -0.16000
C669        C  0.16074968  0.67342622  0.99137107     0.14100
C670        C  0.16530357  0.65148457  0.01308212     0.01000
C671        C  0.18980661  0.65395057  0.03231860     0.16000
C672        C  0.21002337  0.67749333  0.02919623     0.25400
C673        C  0.20624718  0.69861113  0.00649069    -0.40900
C674        C  0.18125047  0.69653752  0.98785113     0.32500
C675        C  0.14504419  0.62552311  0.01467381     0.01100
F676        F  0.19464516  0.63299993  0.05345534    -0.13200
F677        F  0.17758116  0.71607523  0.96516838    -0.13700
C678        C  0.15466183  0.59727765  0.00559636     0.16000
C679        C  0.13500722  0.57307040  0.00548631     0.25400
C680        C  0.10514235  0.57666360  0.01425837    -0.40900
C681        C  0.09573636  0.60529946  0.02340844     0.32400
C682        C  0.11549989  0.62926655  0.02365502     0.14100
F683        F  0.18289606  0.59338554  0.99575420    -0.13200
F684        F  0.06727475  0.61051290  0.03194252    -0.13700
F685        F  0.14504796  0.54640706  0.99576235    -0.16000
F686        F  0.10568658  0.65635711  0.03249546    -0.14600
F687        F  0.13733362  0.67146241  0.97243937    -0.14600
F688        F  0.23452194  0.67833428  0.04678150    -0.16000
C689        C  0.15252744  0.35081572  0.02462400     0.14100
C690        C  0.14555911  0.32344403  0.01117814     0.01000
C691        C  0.11990147  0.32140756  0.99363822     0.16000
C692        C  0.10111090  0.34591773  0.99006121     0.25400
C693        C  0.10765879  0.37331172  0.00379216    -0.40900
C694        C  0.13386659  0.37557498  0.02080584     0.32500
C695        C  0.16507138  0.29701207  0.01504717     0.01100
F696        F  0.11251439  0.29522569  0.98071444    -0.13200
F697        F  0.14068239  0.40128166  0.03495659    -0.13700
C698        C  0.16968621  0.28446972  0.04329132     0.16000
C699        C  0.19091946  0.26200015  0.04731607     0.25400
C700        C  0.20792499  0.25179961  0.02321860    -0.40900
C701        C  0.20067724  0.26184549  0.99450522     0.32400
C702        C  0.17979765  0.28457972  0.99048690     0.14100
F703        F  0.15484668  0.29515938  0.06723674    -0.13200
F704        F  0.21723111  0.25295676  0.97090423    -0.13700
F705        F  0.19772491  0.25304086  0.07530324    -0.16000
F706        F  0.17601011  0.29631117  0.96295435    -0.14600
F707        F  0.17732024  0.35352915  0.04161695    -0.14600
F708        F  0.07621098  0.34266501  0.97333716    -0.16000
C709        C  0.86014745  0.47847156  0.89420753     0.14100
C710        C  0.86691683  0.49973182  0.87231325     0.01000
C711        C  0.89324496  0.51617451  0.87433479     0.16000
C712        C  0.91334189  0.51039409  0.89697672     0.25400
C713        C  0.90703502  0.48863977  0.91852385    -0.40900
C714        C  0.87999460  0.47321017  0.91748887     0.32500
C715        C  0.84712407  0.50416533  0.84675824     0.01100
F716        F  0.89953517  0.53781617  0.85427810    -0.13200
F717        F  0.87350369  0.45213398  0.93804842    -0.13700
C718        C  0.81718830  0.51141317  0.85120800     0.16000
C719        C  0.79824126  0.51477901  0.82698803     0.25400
C720        C  0.80919949  0.51164599  0.79783933    -0.40900
C721        C  0.83945796  0.50502452  0.79346720     0.32400
C722        C  0.85820246  0.50115827  0.81775476     0.14100
F723        F  0.80646114  0.51582923  0.87904156    -0.13200
F724        F  0.85083838  0.50137606  0.76577236    -0.13700
F725        F  0.76931809  0.52162626  0.83216701    -0.16000
F726        F  0.88711376  0.49393293  0.81293923    -0.14600
F727        F  0.83490298  0.46207338  0.89237781    -0.14600
F728        F  0.93905846  0.52618212  0.89787120    -0.16000
C729        C  0.14518062  0.48982927  0.87908659     0.14100
C730        C  0.13324797  0.48167555  0.85144638     0.01000
C731        C  0.10393769  0.47162361  0.84958786     0.16000
C732        C  0.08645825  0.47013107  0.87502362     0.25400
C733        C  0.09804664  0.47882480  0.90291771    -0.40900
C734        C  0.12777103  0.48827911  0.90472115     0.32500
C735        C  0.15152439  0.48358171  0.82453109     0.01100
F736        F  0.09232672  0.46301207  0.82310440    -0.13200
F737        F  0.13972051  0.49694783  0.93100342    -0.13700
C738        C  0.17693768  0.46586247  0.82193671     0.16000
C739        C  0.19572542  0.46919344  0.79761855     0.25400
C740        C  0.18927903  0.49031126  0.77548393    -0.40900
C741        C  0.16295988  0.50704196  0.77737614     0.32400
C742        C  0.14415662  0.50364959  0.80181689     0.14100
F743        F  0.18360957  0.44547208  0.84314100    -0.13200
F744        F  0.15628972  0.52780343  0.75653736    -0.13700
F745        F  0.22033765  0.45184865  0.79580186    -0.16000
F746        F  0.11943280  0.52079673  0.80396967    -0.14600
F747        F  0.17349077  0.50006387  0.88104296    -0.14600
F748        F  0.05821237  0.45990248  0.87221462    -0.16000
C749        C  0.12820502  0.39825739  0.12704596     0.14100
C750        C  0.15618934  0.41121209  0.13134992     0.01000
C751        C  0.16311314  0.43791569  0.11651119     0.16000
C752        C  0.14208412  0.45185138  0.09840933     0.25400
C753        C  0.11346230  0.43983765  0.09563536    -0.40900
C754        C  0.10701624  0.41247000  0.10933126     0.32500
C755        C  0.17647158  0.40052397  0.15487574     0.01100
F756        F  0.18967318  0.45152053  0.12104752    -0.13200
F757        F  0.08028262  0.39921248  0.10508625    -0.13700
C758        C  0.20682889  0.39702142  0.14858572     0.16000
C759        C  0.22792312  0.40480162  0.17000874     0.25400
C760        C  0.21838224  0.41618987  0.19756997    -0.40900
C761        C  0.18861145  0.41127855  0.20607866     0.32400
C762        C  0.16758562  0.40384408  0.18457268     0.14100
F763        F  0.21585629  0.39081203  0.12050319    -0.13200
F764        F  0.17886236  0.41846240  0.23369740    -0.13700
F765        F  0.25707177  0.40537756  0.16222407    -0.16000
F766        F  0.13832659  0.40510465  0.19181819    -0.14600
F767        F  0.12121923  0.37219942  0.14047941    -0.14600
F768        F  0.14931712  0.47767817  0.08465315    -0.16000
C769        C  0.88917131  0.44814952  0.15598769     0.14100
C770        C  0.87455126  0.42170744  0.14782054     0.01000
C771        C  0.88373945  0.40627407  0.12247128     0.16000
C772        C  0.90573182  0.41817372  0.10431376     0.25400
C773        C  0.91887521  0.44554871  0.11135647    -0.40900
C774        C  0.91123255  0.46012349  0.13769395     0.32500
C775        C  0.84495778  0.41591163  0.16025003     0.01100
F776        F  0.86948134  0.38114805  0.11392037    -0.13200
F777        F  0.92315448  0.48699666  0.14428848    -0.13700
C778        C  0.82037045  0.42388235  0.14282829     0.16000
C779        C  0.79379172  0.43188832  0.15634562     0.25400
C780        C  0.79166901  0.43200502  0.18753430    -0.40900
C781        C  0.81436705  0.41833176  0.20431887     0.32400
C782        C  0.84117343  0.41059843  0.19068197     0.14100
F783        F  0.82349334  0.42851450  0.11317187    -0.13200
F784        F  0.81181685  0.41542763  0.23423618    -0.13700
F785        F  0.77208115  0.44371523  0.13906025    -0.16000
F786        F  0.86430005  0.40094631  0.20749798    -0.14600
F787        F  0.87983777  0.46393175  0.17992116    -0.14600
F788        F  0.91322088  0.40371942  0.07893626    -0.16000
C789        C  0.50939760  0.33206415  0.78982190     0.14100
C790        C  0.48476905  0.33592839  0.80871603     0.01000
C791        C  0.46105753  0.31579507  0.80702654     0.16000
C792        C  0.46316498  0.29064768  0.78894960     0.25400
C793        C  0.48895002  0.28523412  0.77216472    -0.40900
C794        C  0.51152742  0.30677841  0.77168706     0.32500
C795        C  0.48493906  0.35933763  0.83193062     0.01100
F796        F  0.43655253  0.31965148  0.82416431    -0.13200
F797        F  0.53684469  0.30190620  0.75603844    -0.13700
C798        C  0.48104196  0.38914341  0.82423984     0.16000
C799        C  0.48246837  0.41131727  0.84595705     0.25400
C800        C  0.48797505  0.40425353  0.87619025    -0.40900
C801        C  0.49126054  0.37403265  0.88382495     0.32400
C802        C  0.48963126  0.35188025  0.86191976     0.14100
F803        F  0.47566840  0.39680844  0.79556170    -0.13200
F804        F  0.49679170  0.36580311  0.91230437    -0.13700
F805        F  0.47848000  0.43978614  0.83704126    -0.16000
F806        F  0.49328821  0.32304921  0.86989032    -0.14600
F807        F  0.53236523  0.35157426  0.79068448    -0.14600
F808        F  0.44109570  0.27011704  0.78979735    -0.16000
C809        C  0.47271994  0.67069489  0.77008897     0.14100
C810        C  0.49841637  0.65937340  0.78401335     0.01000
C811        C  0.52626131  0.67036324  0.77496938     0.16000
C812        C  0.52827368  0.69350620  0.75421147     0.25400
C813        C  0.50251862  0.70692812  0.74255848    -0.40900
C814        C  0.47472889  0.69466215  0.75001353     0.32500
C815        C  0.49636970  0.63884170  0.81019522     0.01100
F816        F  0.55154362  0.66007084  0.78784127    -0.13200
F817        F  0.44940643  0.70819054  0.74076102    -0.13700
C818        C  0.48347664  0.61049984  0.80792255     0.16000
C819        C  0.48282005  0.59124514  0.83258508     0.25400
C820        C  0.49532518  0.59975772  0.86015854    -0.40900
C821        C  0.50747994  0.62849175  0.86246453     0.32400
C822        C  0.50775919  0.64775929  0.83793703     0.14100
F823        F  0.47197123  0.60119542  0.78165673    -0.13200
F824        F  0.51982365  0.63787644  0.88831664    -0.13700
F825        F  0.46952759  0.56437462  0.82948620    -0.16000
F826        F  0.51903491  0.67547779  0.84138402    -0.14600
F827        F  0.44547794  0.66056472  0.77811214    -0.14600
F828        F  0.55540108  0.70523033  0.74809503    -0.16000
C829        C  0.49408408  0.66574506  0.08219340     0.14100
C830        C  0.50526117  0.65775123  0.11042471     0.01000
C831        C  0.51757160  0.62931439  0.11379477     0.16000
C832        C  0.51694080  0.60867786  0.09050587     0.25400
C833        C  0.50436227  0.61583781  0.06257514    -0.40900
C834        C  0.49385598  0.64512246  0.05847065     0.32500
C835        C  0.50218845  0.67761747  0.13714103     0.01100
F836        F  0.53014169  0.62132837  0.14003845    -0.13200
F837        F  0.48218860  0.65349655  0.03195484    -0.13700
C838        C  0.48688895  0.66730472  0.16245075     0.16000
C839        C  0.48278826  0.68558848  0.18730734     0.25400
C840        C  0.49362053  0.71483807  0.18769437    -0.40900
C841        C  0.50984006  0.72498962  0.16292479     0.32400
C842        C  0.51411579  0.70657479  0.13790410     0.14100
F843        F  0.47409973  0.64002447  0.16238460    -0.13200
F844        F  0.51952705  0.75350074  0.16201729    -0.13700
F845        F  0.46603531  0.67548765  0.21028090    -0.16000
F846        F  0.52921130  0.71733683  0.11413857    -0.14600
F847        F  0.48217649  0.69309074  0.07789891    -0.14600
F848        F  0.52881617  0.58143698  0.09552891    -0.16000
C849        C  0.47708523  0.34783465  0.16617426     0.14100
C850        C  0.50222825  0.36092896  0.15303108     0.01000
C851        C  0.53063435  0.35262690  0.16294781     0.16000
C852        C  0.53393177  0.33035421  0.18441741     0.25400
C853        C  0.50889770  0.31611752  0.19643537    -0.40900
C854        C  0.48040827  0.32536426  0.18756690     0.32500
C855        C  0.49914191  0.38161287  0.12751543     0.01100
F856        F  0.55522583  0.36489652  0.15053464    -0.13200
F857        F  0.45594487  0.31112521  0.19798803    -0.13700
C858        C  0.50087317  0.41231608  0.13178063     0.16000
C859        C  0.49965013  0.43180861  0.10746734     0.25400
C860        C  0.49646420  0.42096204  0.07803050    -0.40900
C861        C  0.49451789  0.38987913  0.07411407     0.32400
C862        C  0.49598888  0.37054013  0.09855614     0.14100
F863        F  0.50404867  0.42342382  0.15962997    -0.13200
F864        F  0.49141735  0.37793346  0.04663148    -0.13700
F865        F  0.50204872  0.46130407  0.11301572    -0.16000
F866        F  0.49490052  0.34079961  0.09389896    -0.14600
F867        F  0.44940288  0.35588967  0.15729645    -0.14600
F868        F  0.56165839  0.32106560  0.19188733    -0.16000
C869        C  0.62176154  0.12395130  0.00338847     0.14100
C870        C  0.65171900  0.11503493  0.00207071     0.01000
C871        C  0.65834904  0.08474010  0.00410625     0.16000
C872        C  0.63562397  0.06364414  0.00732619     0.25400
C873        C  0.60535722  0.07230414  0.00886941    -0.40900
C874        C  0.59887454  0.10296966  0.00698085     0.32500
C875        C  0.67605696  0.13753414  0.00078805     0.01100
F876        F  0.68707780  0.07557019  0.00381557    -0.13200
F877        F  0.57046245  0.11291639  0.00901690    -0.13700
C878        C  0.68179713  0.15538478  0.02566885     0.16000
C879        C  0.70228077  0.17876729  0.02402448     0.25400
C880        C  0.71750303  0.18491635  0.99743096    -0.40900
C881        C  0.71324074  0.16586707  0.97303690     0.32400
C882        C  0.69291415  0.14211968  0.97479830     0.14100
F883        F  0.66664643  0.15079582  0.05133079    -0.13200
F884        F  0.72693462  0.17171899  0.94681151    -0.13700
F885        F  0.70566563  0.19688823  0.04785106    -0.16000
F886        F  0.68842734  0.12473678  0.95060321    -0.14600
F887        F  0.61465460  0.15315852  0.00128449    -0.14600
F888        F  0.64360619  0.03466449  0.00919758    -0.16000
C889        C  0.36075690  0.85887770  0.04844425     0.14100
C890        C  0.36138594  0.83165772  0.03329710     0.01000
C891        C  0.38618124  0.82495255  0.01540009     0.16000
C892        C  0.40910122  0.84575425  0.01157634     0.25400
C893        C  0.40753831  0.87375659  0.02536528    -0.40900
C894        C  0.38337927  0.87978806  0.04435672     0.32500
C895        C  0.33468551  0.81209100  0.03338801     0.01100
F896        F  0.38744869  0.79894650  0.00025585    -0.13200
F897        F  0.38155260  0.90603758  0.05901584    -0.13700
C898        C  0.30721482  0.82337790  0.02345411     0.16000
C899        C  0.28285366  0.80448752  0.01921579     0.25400
C900        C  0.28557349  0.77394116  0.02456507    -0.40900
C901        C  0.31213394  0.76309578  0.03699898     0.32400
C902        C  0.33665325  0.78187193  0.04099058     0.14100
F903        F  0.30487153  0.85217367  0.01488187    -0.13200
F904        F  0.31540470  0.73352225  0.04182983    -0.13700
F905        F  0.25771070  0.81547957  0.00668093    -0.16000
F906        F  0.36280569  0.77011073  0.05037533    -0.14600
F907        F  0.33775721  0.86546397  0.06680332    -0.14600
F908        F  0.43196080  0.83911319  0.99305720    -0.16000
C909        C  0.62790987  0.82581076  0.01840694     0.14100
C910        C  0.65701028  0.83632181  0.02334635     0.01000
C911        C  0.66128201  0.86683301  0.02736929     0.16000
C912        C  0.63740439  0.88661002  0.02572920     0.25400
C913        C  0.60797276  0.87643438  0.02093569    -0.40900
C914        C  0.60361872  0.84556617  0.01753598     0.32500
C915        C  0.68333642  0.81612344  0.02226069     0.01100
F916        F  0.68896039  0.87768307  0.03253013    -0.13200
F917        F  0.57608315  0.83447921  0.01219462    -0.13700
C918        C  0.70597115  0.82107365  0.00123054     0.16000
C919        C  0.72958708  0.80103253  0.99831994     0.25400
C920        C  0.73127865  0.77567979  0.01642125    -0.40900
C921        C  0.71003949  0.77195503  0.03903578     0.32400
C922        C  0.68608611  0.79183101  0.04176292     0.14100
F923        F  0.70403615  0.84415493  0.98192051    -0.13200
F924        F  0.71105710  0.74758005  0.05674057    -0.13700
F925        F  0.74930448  0.80480281  0.97580051    -0.16000
F926        F  0.66500566  0.78673019  0.06270793    -0.14600
F927        F  0.62313526  0.79654748  0.01311505    -0.14600
F928        F  0.64362522  0.91594519  0.02828525    -0.16000
C929        C  0.34520830  0.16305558  0.04821686     0.14100
C930        C  0.33890050  0.14024988  0.02786681     0.01000
C931        C  0.31189184  0.14128161  0.01200395     0.16000
C932        C  0.29222887  0.16524533  0.01554752     0.25400
C933        C  0.29963020  0.18898969  0.03437303    -0.40900
C934        C  0.32605990  0.18726344  0.05113372     0.32500
C935        C  0.36127697  0.11645658  0.02232270     0.01100
F936        F  0.30544494  0.12013218  0.99156333    -0.13200
F937        F  0.33392018  0.20959812  0.06979589    -0.13700
C938        C  0.35346796  0.08628749  0.02373939     0.16000
C939        C  0.37503614  0.06415799  0.01994656     0.25400
C940        C  0.40519850  0.07167216  0.01520984    -0.40900
C941        C  0.41264339  0.10200041  0.01268666     0.32400
C942        C  0.39095187  0.12397870  0.01595103     0.14100
F943        F  0.32506757  0.07811730  0.02979046    -0.13200
F944        F  0.44097714  0.11068795  0.00702495    -0.13700
F945        F  0.36626176  0.03538912  0.02169472    -0.16000
F946        F  0.39902472  0.15282482  0.01264852    -0.14600
F947        F  0.37042618  0.16233380  0.06481231    -0.14600
F948        F  0.26716433  0.16629402  0.99881542    -0.16000
C949        C  0.51589521  0.12122544  0.90016493     0.14100
C950        C  0.50056417  0.11742821  0.87339815     0.01000
C951        C  0.48432855  0.09134346  0.86831609     0.16000
C952        C  0.48394576  0.06885229  0.88972912     0.25400
C953        C  0.49983066  0.07239030  0.91642765    -0.40900
C954        C  0.51542738  0.09897000  0.92161329     0.32500
C955        C  0.50218735  0.14052351  0.85049893     0.01100
F956        F  0.46888169  0.08779326  0.84264778    -0.13200
F957        F  0.53116815  0.10299951  0.94704095    -0.13700
C958        C  0.52086969  0.13669471  0.82592146     0.16000
C959        C  0.52239406  0.15849950  0.80397217     0.25400
C960        C  0.50492348  0.18427904  0.80616687    -0.40900
C961        C  0.48691412  0.18845969  0.83146803     0.32400
C962        C  0.48555897  0.16662300  0.85344809     0.14100
F963        F  0.53761690  0.11178668  0.82324432    -0.13200
F964        F  0.46970545  0.21303432  0.83443429    -0.13700
F965        F  0.54116906  0.15453956  0.78071338    -0.16000
F966        F  0.46742626  0.17051401  0.87724002    -0.14600
F967        F  0.53198507  0.14620916  0.90515672    -0.14600
F968        F  0.46770187  0.04397713  0.88462256    -0.16000
C969        C  0.54440033  0.86661734  0.87238183     0.14100
C970        C  0.52113012  0.84896834  0.86191537     0.01000
C971        C  0.49511777  0.84527960  0.87869824     0.16000
C972        C  0.49201033  0.86002396  0.90567821     0.25400
C973        C  0.51496090  0.87842514  0.91568974    -0.40900
C974        C  0.54119385  0.88156874  0.89911198     0.32500
C975        C  0.52310537  0.83562947  0.83264499     0.01100
F976        F  0.47237815  0.82847233  0.86820355    -0.13200
F977        F  0.56282737  0.90063208  0.90801420    -0.13700
C978        C  0.53906277  0.80934328  0.82888921     0.16000
C979        C  0.53756776  0.79436927  0.80198975     0.25400
C980        C  0.51987473  0.80557135  0.77872246    -0.40900
C981        C  0.50560542  0.83314276  0.78197628     0.32400
C982        C  0.50714097  0.84803389  0.80899557     0.14100
F983        F  0.55464198  0.79739938  0.85181268    -0.13200
F984        F  0.48843635  0.84458763  0.75996176    -0.13700
F985        F  0.55253033  0.76836692  0.79906416    -0.16000
F986        F  0.49188484  0.87377695  0.81267757    -0.14600
F987        F  0.56936357  0.87063801  0.85592002    -0.14600
F988        F  0.46592266  0.85827392  0.92073058    -0.16000
C989        C  0.40745090  0.82678339  0.18564240     0.14100
C990        C  0.41510908  0.81776093  0.15662035     0.01000
C991        C  0.41021833  0.78795691  0.14862153     0.16000
C992        C  0.40420612  0.76702253  0.17079047     0.25400
C993        C  0.40785771  0.77559452  0.20065982    -0.40900
C994        C  0.40172301  0.80537554  0.20736474     0.32500
C995        C  0.43268094  0.83781828  0.13724336     0.01100
F996        F  0.41465706  0.77866513  0.12028808    -0.13200
F997        F  0.39846512  0.81407530  0.23604286    -0.13700
C998        C  0.46067723  0.82878511  0.12629647     0.16000
C999        C  0.47875106  0.84871807  0.11065386     0.25400
C1000       C  0.46994613  0.87838961  0.10713458    -0.40900
C1001       C  0.44209232  0.88732164  0.11821844     0.32400
C1002       C  0.42336959  0.86710024  0.13238604     0.14100
F1003       F  0.47099967  0.80094430  0.13152266    -0.13200
F1004       F  0.43225524  0.91540540  0.11407591    -0.13700
F1005       F  0.50503847  0.83917946  0.09936290    -0.16000
F1006       F  0.39591381  0.87607730  0.14109396    -0.14600
F1007       F  0.40993545  0.85553932  0.19416342    -0.14600
F1008       F  0.40313122  0.73781672  0.16344237    -0.16000
C1009       C  0.49636813  0.10593459  0.14743487     0.14100
C1010       C  0.51795833  0.12722098  0.14020318     0.01000
C1011       C  0.53866369  0.12165513  0.11775186     0.16000
C1012       C  0.53714775  0.09540360  0.10173883     0.25400
C1013       C  0.51528960  0.07414481  0.10856586    -0.40900
C1014       C  0.49538722  0.07912471  0.13196026     0.32500
C1015       C  0.51930658  0.15539098  0.15602700     0.01100
F1016       F  0.55964266  0.14216918  0.11073270    -0.13200
F1017       F  0.47396586  0.05893074  0.13846267    -0.13700
C1018       C  0.54145878  0.15979030  0.17738522     0.16000
C1019       C  0.54340919  0.18681222  0.19215268     0.25400
C1020       C  0.52341790  0.20979683  0.18530510    -0.40900
C1021       C  0.50174983  0.20558811  0.16325018     0.32400
C1022       C  0.49960406  0.17836257  0.14876191     0.14100
F1023       F  0.56084307  0.13768993  0.18414519    -0.13200
F1024       F  0.48167754  0.22719973  0.15695465    -0.13700
F1025       F  0.56459205  0.19046240  0.21333580    -0.16000
F1026       F  0.47824596  0.17428620  0.12784679    -0.14600
F1027       F  0.47594101  0.11147572  0.16890027    -0.14600
F1028       F  0.55644351  0.09107300  0.07893323    -0.16000
C1029       C  0.32309405  0.96967060  0.19746134     0.14100
C1030       C  0.32760007  0.98765986  0.17219767     0.01000
C1031       C  0.30748026  0.01101309  0.16672674     0.16000
C1032       C  0.28430366  0.01691560  0.18653762     0.25400
C1033       C  0.28053036  0.99970301  0.21230983    -0.40900
C1034       C  0.29968637  0.97559137  0.21726229     0.32500
C1035       C  0.35337166  0.98276607  0.15176614     0.01100
F1036       F  0.31150512  0.02960356  0.14331372    -0.13200
F1037       F  0.29744769  0.95950712  0.24267040    -0.13700
C1038       C  0.34868088  0.98109652  0.12099095     0.16000
C1039       C  0.37259759  0.97920813  0.10129233     0.25400
C1040       C  0.40225227  0.97750302  0.11173876    -0.40900
C1041       C  0.40682085  0.97738744  0.14281142     0.32400
C1042       C  0.38276653  0.98089858  0.16249373     0.14100
F1043       F  0.32065829  0.98134547  0.10977618    -0.13200
F1044       F  0.43448365  0.97389203  0.15433838    -0.13700
F1045       F  0.36630445  0.97935219  0.07180081    -0.16000
F1046       F  0.38838228  0.98351615  0.19200850    -0.14600
F1047       F  0.34196763  0.94698878  0.20358109    -0.14600
F1048       F  0.26693328  0.04113772  0.18187039    -0.16000
C1049       C  0.70105296  0.97990349  0.84841417     0.14100
C1050       C  0.67381719  0.96440015  0.84774755     0.01000
C1051       C  0.66676477  0.94786944  0.82223319     0.16000
C1052       C  0.68459883  0.94963390  0.79682994     0.25400
C1053       C  0.71017008  0.96768459  0.79636616    -0.40900
C1054       C  0.71911001  0.98154535  0.82287749     0.32500
C1055       C  0.65127503  0.96778784  0.87198006     0.01100
F1056       F  0.64176623  0.93100629  0.82145382    -0.13200
F1057       F  0.74375050  0.99889729  0.82329761    -0.13700
C1058       C  0.62302569  0.97955404  0.86543251     0.16000
C1059       C  0.60115831  0.98215034  0.88753103     0.25400
C1060       C  0.60675408  0.97274559  0.91692853    -0.40900
C1061       C  0.63572221  0.96238751  0.92373009     0.32400
C1062       C  0.65757855  0.95981949  0.90149509     0.14100
F1063       F  0.61674519  0.98913179  0.83751389    -0.13200
F1064       F  0.64297967  0.95423402  0.95184113    -0.13700
F1065       F  0.57471947  0.99466518  0.88016108    -0.16000
F1066       F  0.68474163  0.94884795  0.90871102    -0.14600
F1067       F  0.70906709  0.99531042  0.87301793    -0.14600
F1068       F  0.67587004  0.93502908  0.77193128    -0.16000
C1069       C  0.31247102  0.98284411  0.84533722     0.14100
C1070       C  0.33674585  0.96315376  0.84774113     0.01000
C1071       C  0.34019460  0.94097647  0.82607994     0.16000
C1072       C  0.32158373  0.94009761  0.80127917     0.25400
C1073       C  0.29849454  0.96083427  0.79786115    -0.40900
C1074       C  0.29332673  0.98153843  0.82062223     0.32500
C1075       C  0.35978474  0.96655832  0.87136583     0.01100
F1076       F  0.36227689  0.92057926  0.82850725    -0.13200
F1077       F  0.27124400  0.00187697  0.81785340    -0.13700
C1078       C  0.35228317  0.96591889  0.90162490     0.16000
C1079       C  0.37447522  0.96740153  0.92352009     0.25400
C1080       C  0.40493495  0.96950674  0.91567264    -0.40900
C1081       C  0.41217454  0.97042782  0.88517201     0.32400
C1082       C  0.38990710  0.96938024  0.86345813     0.14100
F1083       F  0.32345857  0.96306911  0.91007078    -0.13200
F1084       F  0.44086435  0.97220315  0.87603329    -0.13700
F1085       F  0.36588904  0.96628189  0.95240660    -0.16000
F1086       F  0.39784571  0.97139495  0.83442815    -0.14600
F1087       F  0.30839691  0.00448287  0.86587911    -0.14600
F1088       F  0.32677051  0.91947272  0.77992433    -0.16000
C1089       C  0.53870164  0.21188843  0.31804314     0.14100
C1090       C  0.51028636  0.20360811  0.32790460     0.01000
C1091       C  0.48544208  0.21971655  0.31790265     0.16000
C1092       C  0.48870618  0.24170040  0.29603207     0.25400
C1093       C  0.51684694  0.24784454  0.28396729    -0.40900
C1094       C  0.54196374  0.23400871  0.29644517     0.32500
C1095       C  0.50634013  0.17628214  0.34596978     0.01100
F1096       F  0.45773084  0.21193956  0.32691039    -0.13200
F1097       F  0.56928917  0.23892645  0.28460468    -0.13700
C1098       C  0.49696667  0.17802129  0.37553649     0.16000
C1099       C  0.49319085  0.15221294  0.39248749     0.25400
C1100       C  0.49956796  0.12381499  0.38049691    -0.40900
C1101       C  0.50825670  0.12224346  0.35038459     0.32400
C1102       C  0.51153894  0.14821097  0.33337815     0.14100
F1103       F  0.49206806  0.20488226  0.38825278    -0.13200
F1104       F  0.51414009  0.09573205  0.33738563    -0.13700
F1105       F  0.48317863  0.15528115  0.42075796    -0.16000
F1106       F  0.51983096  0.14600501  0.30446038    -0.14600
F1107       F  0.56307080  0.19682287  0.32749027    -0.14600
F1108       F  0.46401086  0.25373845  0.28354951    -0.16000
C1109       C  0.47510262  0.88682108  0.32951994     0.14100
C1110       C  0.50163864  0.87161540  0.32274829     0.01000
C1111       C  0.52861487  0.88304788  0.33382179     0.16000
C1112       C  0.52874156  0.90803559  0.35260588     0.25400
C1113       C  0.50198702  0.92204488  0.36067448    -0.40900
C1114       C  0.47523777  0.91153100  0.34851246     0.32500
C1115       C  0.50049986  0.84354958  0.30486749     0.01100
F1116       F  0.55470853  0.86935607  0.32745762    -0.13200
F1117       F  0.44905981  0.92456199  0.35588572    -0.13700
C1118       C  0.51496883  0.84119632  0.27720500     0.16000
C1119       C  0.50979268  0.81661158  0.25852020     0.25400
C1120       C  0.49013942  0.79387908  0.26718893    -0.40900
C1121       C  0.47722847  0.79541831  0.29562888     0.32400
C1122       C  0.48255171  0.81975056  0.31432484     0.14100
F1123       F  0.53224049  0.86379480  0.26725481    -0.13200
F1124       F  0.45788872  0.77409317  0.30460481    -0.13700
F1125       F  0.52177342  0.81642508  0.23086734    -0.16000
F1126       F  0.46902295  0.82071164  0.34127066    -0.14600
F1127       F  0.44889234  0.87750221  0.31784589    -0.14600
F1128       F  0.55493957  0.91811007  0.36365069    -0.16000
C1129       C  0.49049727  0.15427432  0.59437706     0.14100
C1130       C  0.49831770  0.14490221  0.62312322     0.01000
C1131       C  0.50374139  0.11453796  0.62799436     0.16000
C1132       C  0.50213488  0.09407383  0.60461381     0.25400
C1133       C  0.49483667  0.10336263  0.57555759    -0.40900
C1134       C  0.48867721  0.13383531  0.57091420     0.32500
C1135       C  0.50101114  0.16650868  0.64815136     0.01100
F1136       F  0.51047870  0.10455487  0.65565011    -0.13200
F1137       F  0.48087227  0.14409802  0.54363437    -0.13700
C1138       C  0.47672174  0.18427238  0.65677429     0.16000
C1139       C  0.47839073  0.20205956  0.68235340     0.25400
C1140       C  0.50444434  0.20269476  0.69955788    -0.40900
C1141       C  0.52906194  0.18582345  0.69033812     0.32400
C1142       C  0.52743055  0.16805525  0.66485371     0.14100
F1143       F  0.45068011  0.18285372  0.64161866    -0.13200
F1144       F  0.55438808  0.18566579  0.70675592    -0.13700
F1145       F  0.45372951  0.21663325  0.69175220    -0.16000
F1146       F  0.55145651  0.15163206  0.65694193    -0.14600
F1147       F  0.48533368  0.18343015  0.58878402    -0.14600
F1148       F  0.50840188  0.06521200  0.61052838    -0.16000
C1149       C  0.48671754  0.85424274  0.57291935     0.14100
C1150       C  0.49701247  0.85921019  0.60196267     0.01000
C1151       C  0.50900754  0.88711071  0.60899806     0.16000
C1152       C  0.51024466  0.90979881  0.58765231     0.25400
C1153       C  0.49939670  0.90525615  0.55852459    -0.40900
C1154       C  0.48797967  0.87691839  0.55137794     0.32500
C1155       C  0.49466310  0.83582003  0.62537689     0.01100
F1156       F  0.51970130  0.89237289  0.63670851    -0.13200
F1157       F  0.47712935  0.87132587  0.52381737    -0.13700
C1158       C  0.51416452  0.81136476  0.62584456     0.16000
C1159       C  0.51425473  0.79148610  0.65002888     0.25400
C1160       C  0.49474532  0.79565909  0.67405056    -0.40900
C1161       C  0.47463952  0.81963077  0.67302749     0.32400
C1162       C  0.47441299  0.83928341  0.64886523     0.14100
F1163       F  0.53443851  0.80786959  0.60382310    -0.13200
F1164       F  0.45633130  0.82503698  0.69639156    -0.13700
F1165       F  0.53522587  0.76987532  0.65128970    -0.16000
F1166       F  0.45515001  0.86247711  0.64893840    -0.14600
F1167       F  0.47464056  0.82762579  0.56566386    -0.14600
F1168       F  0.52250923  0.93616819  0.59554171    -0.16000
C1169       C  0.35407549  0.03936031  0.34999535     0.14100
C1170       C  0.35588995  0.06952625  0.34207628     0.01000
C1171       C  0.38170923  0.08562484  0.34856250     0.16000
C1172       C  0.40513556  0.07190214  0.36368864     0.25400
C1173       C  0.40279718  0.04202328  0.37250999    -0.40900
C1174       C  0.37724325  0.02580600  0.36544542     0.32500
C1175       C  0.33172282  0.08247089  0.32431653     0.01100
F1176       F  0.38397105  0.11459776  0.34063131    -0.13200
F1177       F  0.37484251  0.99685402  0.37346525    -0.13700
C1178       C  0.30292105  0.08388402  0.33620993     0.16000
C1179       C  0.27839091  0.08081452  0.31742738     0.25400
C1180       C  0.28303307  0.07496413  0.28703335    -0.40900
C1181       C  0.31114725  0.08159722  0.27480964     0.32400
C1182       C  0.33560368  0.08469914  0.29355000     0.14100
F1183       F  0.29878534  0.08403201  0.36607969    -0.13200
F1184       F  0.31602312  0.07981760  0.24509441    -0.13700
F1185       F  0.25082455  0.07893053  0.32956512    -0.16000
F1186       F  0.36332014  0.08484197  0.28164576    -0.14600
F1187       F  0.33000416  0.02291667  0.34221475    -0.14600
F1188       F  0.42951162  0.08810506  0.37096037    -0.16000
C1189       C  0.64330021  0.00461966  0.59022180     0.14100
C1190       C  0.63260040  0.00657698  0.61945652     0.01000
C1191       C  0.60208457  0.00992082  0.62442627     0.16000
C1192       C  0.58236156  0.01096196  0.60066976     0.25400
C1193       C  0.59276211  0.00863413  0.57109312    -0.40900
C1194       C  0.62355780  0.00540338  0.56621260     0.32500
C1195       C  0.65284096  0.00386320  0.64506459     0.01100
F1196       F  0.59130246  0.01222051  0.65251491    -0.13200
F1197       F  0.63460832  0.00209265  0.53835916    -0.13700
C1198       C  0.67633427  0.02397505  0.64903833     0.16000
C1199       C  0.69519766  0.02124607  0.67355924     0.25400
C1200       C  0.69052696  0.99858711  0.69454799    -0.40900
C1201       C  0.66655504  0.97897362  0.69088808     0.32400
C1202       C  0.64806669  0.98140931  0.66619446     0.14100
F1203       F  0.68070138  0.04645487  0.62942206    -0.13200
F1204       F  0.66182051  0.95653082  0.71045673    -0.13700
F1205       F  0.71776938  0.04093763  0.67703235    -0.16000
F1206       F  0.62586118  0.96133824  0.66250299    -0.14600
F1207       F  0.67278271  0.00097737  0.58495752    -0.14600
F1208       F  0.55302507  0.01416078  0.60699357    -0.16000
C1209       C  0.31496753  0.96191968  0.63625804     0.14100
C1210       C  0.34399917  0.97294500  0.63850819     0.01000
C1211       C  0.35543565  0.98055929  0.66651934     0.16000
C1212       C  0.33793139  0.97769231  0.69191668     0.25400
C1213       C  0.30855712  0.96715273  0.68977445    -0.40900
C1214       C  0.29734808  0.95903005  0.66162383     0.32500
C1215       C  0.36249520  0.97683036  0.61175295     0.01100
F1216       F  0.38339858  0.99158448  0.66918766    -0.13200
F1217       F  0.26945774  0.94793937  0.65854430    -0.13700
C1218       C  0.35329014  0.99568736  0.58858252     0.16000
C1219       C  0.37225206  0.00151515  0.56466723     0.25400
C1220       C  0.40082461  0.98902418  0.56401951    -0.40900
C1221       C  0.40938300  0.96904743  0.58658114     0.32400
C1222       C  0.39027017  0.96285761  0.61007461     0.14100
F1223       F  0.32651998  0.00951471  0.58980825    -0.13200
F1224       F  0.43634877  0.95547632  0.58595379    -0.13700
F1225       F  0.36329036  0.02050423  0.54302204    -0.16000
F1226       F  0.39899950  0.94341440  0.63144009    -0.14600
F1227       F  0.30382827  0.95358133  0.60949902    -0.14600
F1228       F  0.34951194  0.98625652  0.71840580    -0.16000
C1229       C  0.62532313  0.97388579  0.16259219     0.14100
C1230       C  0.64944830  0.95524985  0.15551304     0.01000
C1231       C  0.64948670  0.94015698  0.12835626     0.16000
C1232       C  0.62649553  0.94443918  0.10800825     0.25400
C1233       C  0.60286127  0.96384385  0.11439185    -0.40900
C1234       C  0.60208217  0.97805087  0.14217757     0.32500
C1235       C  0.67556724  0.95280383  0.17537913     0.01100
F1236       F  0.67189581  0.92114360  0.12161826    -0.13200
F1237       F  0.57944685  0.99673846  0.14907351    -0.13700
C1238       C  0.67294106  0.94042945  0.20386619     0.16000
C1239       C  0.69716301  0.94095118  0.22341225     0.25400
C1240       C  0.72434762  0.95373975  0.21470003    -0.40900
C1241       C  0.72757265  0.96389037  0.18540444     0.32400
C1242       C  0.70331041  0.96364430  0.16594654     0.14100
F1243       F  0.64652988  0.92925497  0.21322640    -0.13200
F1244       F  0.75324545  0.97713749  0.17674294    -0.13700
F1245       F  0.69315791  0.93199349  0.25193868    -0.16000
F1246       F  0.70621153  0.97623069  0.13868443    -0.14600
F1247       F  0.62478048  0.98878418  0.18878164    -0.14600
F1248       F  0.62696867  0.92899162  0.08224437    -0.16000
C1249       C  0.64804415  0.05981812  0.36781129     0.14100
C1250       C  0.64880090  0.04923248  0.33855055     0.01000
C1251       C  0.62356226  0.03483590  0.32684823     0.16000
C1252       C  0.59899407  0.02909314  0.34494315     0.25400
C1253       C  0.59969786  0.03690820  0.37514723    -0.40900
C1254       C  0.62404825  0.05323352  0.38611633     0.32500
C1255       C  0.67742818  0.04791646  0.32254189     0.01100
F1256       F  0.62349411  0.02424505  0.29862052    -0.13200
F1257       F  0.62497103  0.06245292  0.41481486    -0.13700
C1258       C  0.70193713  0.03451712  0.33659810     0.16000
C1259       C  0.72652062  0.02587125  0.32019254     0.25400
C1260       C  0.72628638  0.02871895  0.28910574    -0.40900
C1261       C  0.70336013  0.04506393  0.27541740     0.32400
C1262       C  0.67932535  0.05519675  0.29225028     0.14100
F1263       F  0.70072222  0.02619856  0.36557278    -0.13200
F1264       F  0.70283378  0.04875335  0.24547390    -0.13700
F1265       F  0.74827714  0.01053110  0.33442367    -0.16000
F1266       F  0.65679788  0.06989263  0.27857555    -0.14600
F1267       F  0.67141998  0.07511838  0.37920140    -0.14600
F1268       F  0.57547774  0.01415522  0.33339029    -0.16000
C1269       C  0.38953734  0.86083329  0.43645722     0.14100
C1270       C  0.36100991  0.86261393  0.44903916     0.01000
C1271       C  0.35273316  0.88917165  0.46338678     0.16000
C1272       C  0.37277451  0.91306440  0.46565561     0.25400
C1273       C  0.40177600  0.91087902  0.45389932    -0.40900
C1274       C  0.40969626  0.88447283  0.43901172     0.32500
C1275       C  0.34056363  0.83631637  0.44864564     0.01100
F1276       F  0.32554363  0.89161038  0.47623164    -0.13200
F1277       F  0.43698968  0.88154434  0.42650768    -0.13700
C1278       C  0.34919115  0.80934550  0.46199592     0.16000
C1279       C  0.32866894  0.78607225  0.46560373     0.25400
C1280       C  0.29924406  0.78894742  0.45542589    -0.40900
C1281       C  0.29132104  0.81500037  0.44006306     0.32400
C1282       C  0.31168196  0.83845288  0.43678011     0.14100
F1283       F  0.37680701  0.80642853  0.47380473    -0.13200
F1284       F  0.26287224  0.81887353  0.43077251    -0.13700
F1285       F  0.33673174  0.76182617  0.48160393    -0.16000
F1286       F  0.30272320  0.86381948  0.42318666    -0.14600
F1287       F  0.39787361  0.83612720  0.42140263    -0.14600
F1288       F  0.36411239  0.93785497  0.48042699    -0.16000
C1289       C  0.64751816  0.89419063  0.46841026     0.14100
C1290       C  0.63879247  0.86699061  0.45578420     0.01000
C1291       C  0.61128743  0.86519902  0.44135513     0.16000
C1292       C  0.59193374  0.88951589  0.44109006     0.25400
C1293       C  0.59953079  0.91629123  0.45555569    -0.40900
C1294       C  0.62816899  0.91873567  0.46815108     0.32500
C1295       C  0.65708021  0.83981040  0.45988039     0.01100
F1296       F  0.60269973  0.83943709  0.42834894    -0.13200
F1297       F  0.63695501  0.94427798  0.48149407    -0.13700
C1298       C  0.65362020  0.82265039  0.48569061     0.16000
C1299       C  0.67228748  0.79835534  0.49110311     0.25400
C1300       C  0.69473613  0.79061052  0.47075116    -0.40900
C1301       C  0.69684963  0.80657279  0.44394891     0.32400
C1302       C  0.67817654  0.83106106  0.43858858     0.14100
F1303       F  0.63303364  0.83032853  0.50634964    -0.13200
F1304       F  0.71874347  0.80017600  0.42424398    -0.13700
F1305       F  0.66979335  0.78351082  0.51724947    -0.16000
F1306       F  0.68173654  0.84719541  0.41337729    -0.14600
F1307       F  0.67441367  0.89664258  0.48187025    -0.14600
F1308       F  0.56541932  0.88658497  0.42698285    -0.16000
C1309       C  0.66897995  0.20028271  0.46279802     0.14100
C1310       C  0.65500649  0.18808878  0.48798280     0.01000
C1311       C  0.66353570  0.19797908  0.51632236     0.16000
C1312       C  0.68782442  0.21705555  0.51958964     0.25400
C1313       C  0.70364234  0.22687544  0.49457680    -0.40900
C1314       C  0.69313348  0.21967093  0.46611497     0.32500
C1315       C  0.63356393  0.16322586  0.48497500     0.01100
F1316       F  0.64934555  0.18781201  0.54091638    -0.13200
F1317       F  0.70799675  0.22914192  0.44164219    -0.13700
C1318       C  0.63984679  0.13547107  0.49794508     0.16000
C1319       C  0.61973718  0.11188678  0.49534077     0.25400
C1320       C  0.59306337  0.11550031  0.47942014    -0.40900
C1321       C  0.58704167  0.14323228  0.46611938     0.32400
C1322       C  0.60705953  0.16684186  0.46896992     0.14100
F1323       F  0.66568928  0.13112001  0.51292780    -0.13200
F1324       F  0.56192382  0.14742353  0.44991908    -0.13700
F1325       F  0.62598461  0.08580873  0.50912869    -0.16000
F1326       F  0.60034318  0.19343315  0.45647413    -0.14600
F1327       F  0.66089960  0.19149420  0.43511469    -0.14600
F1328       F  0.69753495  0.22392357  0.54729933    -0.16000
C1329       C  0.32949930  0.20135298  0.48820619     0.14100
C1330       C  0.33143449  0.18139636  0.46418418     0.01000
C1331       C  0.31128250  0.18457099  0.44042988     0.16000
C1332       C  0.28852669  0.20581850  0.44170676     0.25400
C1333       C  0.28591002  0.22477149  0.46633166    -0.40900
C1334       C  0.30729938  0.22310603  0.48896373     0.32500
C1335       C  0.35395723  0.15701626  0.46452855     0.01100
F1336       F  0.31275319  0.16622108  0.41658818    -0.13200
F1337       F  0.30455436  0.24034652  0.51353632    -0.13700
C1338       C  0.34572004  0.12714113  0.46024478     0.16000
C1339       C  0.36704227  0.10437592  0.46161790     0.25400
C1340       C  0.39711459  0.11083747  0.46796188    -0.40900
C1341       C  0.40514342  0.14094096  0.47199452     0.32400
C1342       C  0.38394449  0.16354591  0.47006660     0.14100
F1343       F  0.31685816  0.11981459  0.45536326    -0.13200
F1344       F  0.43364427  0.14891444  0.47784083    -0.13700
F1345       F  0.35811231  0.07607797  0.45643867    -0.16000
F1346       F  0.39293032  0.19212177  0.47328530    -0.14600
F1347       F  0.34750807  0.19821246  0.51221139    -0.14600
F1348       F  0.26719339  0.20586947  0.42036108    -0.16000
C1349       C  0.89268045  0.97120400  0.66474654     0.14100
C1350       C  0.86230928  0.97334791  0.65847859     0.01000
C1351       C  0.85305120  0.97421711  0.62862766     0.16000
C1352       C  0.87391414  0.97408609  0.60539634     0.25400
C1353       C  0.90469559  0.97313948  0.61153751    -0.40900
C1354       C  0.91361439  0.97094119  0.64172249     0.32500
C1355       C  0.84045107  0.97784761  0.68285291     0.01100
F1356       F  0.82364953  0.97580562  0.62201022    -0.13200
F1357       F  0.94273900  0.96903435  0.64937001    -0.13700
C1358       C  0.82706586  0.00573886  0.68614775     0.16000
C1359       C  0.80375040  0.00975506  0.70624973     0.25400
C1360       C  0.79297913  0.98582762  0.72326767    -0.40900
C1361       C  0.80813988  0.95854668  0.72200133     0.32400
C1362       C  0.83185059  0.95459465  0.70194834     0.14100
F1363       F  0.83564155  0.02878239  0.66869349    -0.13200
F1364       F  0.79812318  0.93498190  0.73790130    -0.13700
F1365       F  0.78995117  0.03653007  0.70732516    -0.16000
F1366       F  0.84493877  0.92756004  0.69969819    -0.14600
F1367       F  0.90222517  0.97064070  0.69335003    -0.14600
F1368       F  0.86381859  0.97544963  0.57700947    -0.16000
C1369       C  0.17382026  0.94095975  0.69896661     0.14100
C1370       C  0.16189417  0.96863470  0.69110188     0.01000
C1371       C  0.17175257  0.99421886  0.70594486     0.16000
C1372       C  0.19526934  0.99243577  0.72632581     0.25400
C1373       C  0.20953146  0.96519908  0.73151096    -0.40900
C1374       C  0.19754957  0.93926198  0.71899993     0.32500
C1375       C  0.14073197  0.97086198  0.66601781     0.01100
F1376       F  0.15997800  0.02111762  0.69918584    -0.13200
F1377       F  0.21112978  0.91272702  0.72349564    -0.13700
C1378       C  0.11049309  0.96543351  0.67055665     0.16000
C1379       C  0.09046512  0.96678897  0.64679001     0.25400
C1380       C  0.10032643  0.97370841  0.61769711    -0.40900
C1381       C  0.13102911  0.97854359  0.61325094     0.32400
C1382       C  0.15095393  0.97721086  0.63721668     0.14100
F1383       F  0.10039078  0.95860436  0.69813949    -0.13200
F1384       F  0.14189921  0.98473211  0.58580980    -0.13700
F1385       F  0.06147072  0.96063484  0.65239142    -0.16000
F1386       F  0.18036551  0.98184666  0.63227939    -0.14600
F1387       F  0.16409872  0.91589371  0.68538570    -0.14600
F1388       F  0.20626571  0.01770970  0.73848197    -0.16000
C1389       C  0.16460603  0.00935022  0.32770224     0.14100
C1390       C  0.16916524  0.98286264  0.34340974     0.01000
C1391       C  0.19234375  0.96376815  0.33466642     0.16000
C1392       C  0.21129217  0.97171307  0.31104802     0.25400
C1393       C  0.20737867  0.99899665  0.29629924    -0.40900
C1394       C  0.18347537  0.01731913  0.30447288     0.32500
C1395       C  0.14912731  0.97572710  0.36860259     0.01100
F1396       F  0.19706157  0.93795138  0.34948525    -0.13200
F1397       F  0.17934393  0.04388064  0.29080906    -0.13700
C1398       C  0.11939445  0.96874227  0.36282709     0.16000
C1399       C  0.09892589  0.96603687  0.38600489     0.25400
C1400       C  0.10753261  0.97069560  0.41594174    -0.40900
C1401       C  0.13778162  0.97716750  0.42166973     0.32400
C1402       C  0.15830941  0.97965698  0.39818017     0.14100
F1403       F  0.10989052  0.96553623  0.33437226    -0.13200
F1404       F  0.14740247  0.98231139  0.44977217    -0.13700
F1405       F  0.07040788  0.95948997  0.37869240    -0.16000
F1406       F  0.18684021  0.98745228  0.40416226    -0.14600
F1407       F  0.14259252  0.02826372  0.33585771    -0.14600
F1408       F  0.23452018  0.95383554  0.30399171    -0.16000
C1409       C  0.86106385  0.96715817  0.38852845     0.14100
C1410       C  0.87114486  0.95785189  0.36045956     0.01000
C1411       C  0.90141869  0.95138514  0.35683715     0.16000
C1412       C  0.92120698  0.95366122  0.38080380     0.31400
C1413       C  0.91141231  0.96342193  0.40907789    -0.40900
C1414       C  0.88093841  0.97020523  0.41246907     0.32500
C1415       C  0.85045079  0.95655028  0.33457276     0.01100
F1416       F  0.91187166  0.94265142  0.32993832    -0.13200
F1417       F  0.87033527  0.98053718  0.43871380    -0.13700
C1418       C  0.85445281  0.97594178  0.31042386     0.16000
C1419       C  0.83334544  0.97738893  0.28762092     0.25400
C1420       C  0.80772526  0.95963617  0.28842231    -0.40900
C1421       C  0.80458348  0.93877675  0.31150261     0.32400
C1422       C  0.82581992  0.93724496  0.33442263     0.14100
F1423       F  0.87759357  0.99524956  0.31010922    -0.13200
F1424       F  0.77973992  0.92175896  0.31323673    -0.13700
F1425       F  0.83643730  0.99823229  0.26604379    -0.16000
F1426       F  0.82168678  0.91786488  0.35715320    -0.14600
F1427       F  0.83202379  0.97430265  0.39250590    -0.14600
F1428       F  0.94998932  0.94591179  0.37614474    -0.16000
C1429       C  0.14979681  0.87014343  0.56767346     0.14100
C1430       C  0.15014314  0.84075384  0.55746547     0.01000
C1431       C  0.12473086  0.82926990  0.54320523     0.16000
C1432       C  0.10095798  0.84787207  0.53622694     0.25400
C1433       C  0.10284282  0.87834791  0.54230773    -0.40900
C1434       C  0.12664940  0.88900197  0.55963019     0.32500
C1435       C  0.17864891  0.82463527  0.55534127     0.01100
F1436       F  0.12395148  0.80079598  0.53344865    -0.13200
F1437       F  0.12796012  0.91785760  0.56817886    -0.13700
C1438       C  0.18047702  0.79432553  0.56233438     0.16000
C1439       C  0.20360801  0.77719363  0.55077031     0.25400
C1440       C  0.22561673  0.79047666  0.53290385    -0.40900
C1441       C  0.22642417  0.82159256  0.53053305     0.32400
C1442       C  0.20263025  0.83837695  0.54070925     0.14100
F1443       F  0.15843888  0.78086364  0.57791729    -0.13200
F1444       F  0.24791216  0.83561343  0.51465274    -0.13700
F1445       F  0.20292542  0.74732308  0.55468094    -0.16000
F1446       F  0.20134476  0.86739291  0.53261710    -0.14600
F1447       F  0.17303008  0.88114450  0.58347946    -0.14600
F1448       F  0.07720625  0.83644903  0.52155548    -0.16000
C1449       C  0.86249710  0.86833284  0.56381338     0.14100
C1450       C  0.85943678  0.84117912  0.54892566     0.01000
C1451       C  0.88167353  0.83205649  0.52888924     0.16000
C1452       C  0.90570717  0.85059026  0.52263626     0.25400
C1453       C  0.90713298  0.87888832  0.53538312    -0.40900
C1454       C  0.88592731  0.88729420  0.55672214     0.32500
C1455       C  0.83110058  0.82476984  0.55014124     0.01100
F1456       F  0.87898663  0.80621028  0.51366290    -0.13200
F1457       F  0.88778897  0.91398563  0.57050827    -0.13700
C1458       C  0.80492866  0.83892896  0.54069077     0.16000
C1459       C  0.77996394  0.82223189  0.53324927     0.25400
C1460       C  0.78130093  0.79099351  0.53400491    -0.40900
C1461       C  0.80600599  0.77725552  0.54743940     0.32400
C1462       C  0.83078489  0.79409910  0.55548137     0.14100
F1463       F  0.80461136  0.86856574  0.53517777    -0.13200
F1464       F  0.80715336  0.74730582  0.55047839    -0.13700
F1465       F  0.75600888  0.83664646  0.52188550    -0.16000
F1466       F  0.85538084  0.78021219  0.56608272    -0.14600
F1467       F  0.84211028  0.87693461  0.58430603    -0.14600
F1468       F  0.92647265  0.84172587  0.50264634    -0.16000
C1469       C  0.81482814  0.14199886  0.52415708     0.14100
C1470       C  0.84489998  0.14556009  0.51677938     0.01000
C1471       C  0.85509553  0.17347393  0.50743130     0.16000
C1472       C  0.83550246  0.19749155  0.50516175     0.25400
C1473       C  0.80513957  0.19401426  0.51210777    -0.40900
C1474       C  0.79507420  0.16588028  0.52169111     0.32500
C1475       C  0.86541487  0.11986425  0.51676022     0.01100
F1476       F  0.88388530  0.17710302  0.49917196    -0.13200
F1477       F  0.76604048  0.16125835  0.52849595    -0.13700
C1478       C  0.86180386  0.09707773  0.49577074     0.16000
C1479       C  0.88274195  0.07417161  0.49366624     0.25400
C1480       C  0.90771551  0.07386276  0.51239033    -0.40900
C1481       C  0.91101305  0.09639950  0.53379017     0.32400
C1482       C  0.88987166  0.11906054  0.53613313     0.14100
F1483       F  0.83854159  0.09766904  0.47657292    -0.13200
F1484       F  0.93454751  0.09623600  0.55269390    -0.13700
F1485       F  0.87935121  0.05305492  0.47246078    -0.16000
F1486       F  0.89321628  0.14023179  0.55731386    -0.14600
F1487       F  0.80454204  0.11526776  0.53354297    -0.14600
F1488       F  0.84608675  0.22368872  0.49468614    -0.16000
C1489       C  0.14598621  0.17154877  0.50961982     0.14100
C1490       C  0.15941465  0.14680258  0.52301906     0.01000
C1491       C  0.18956265  0.14780453  0.53077065     0.16000
C1492       C  0.20620920  0.17321047  0.52470721     0.25400
C1493       C  0.19292006  0.19777255  0.51039468    -0.40900
C1494       C  0.16248359  0.19689316  0.50359294     0.32500
C1495       C  0.14189327  0.11961971  0.52696044     0.01100
F1496       F  0.20302453  0.12392597  0.54338587    -0.13200
F1497       F  0.14910382  0.21952016  0.48884174    -0.13700
C1498       C  0.15041679  0.09327964  0.51261615     0.16000
C1499       C  0.13085902  0.06935970  0.51141176     0.25400
C1500       C  0.10243238  0.07183437  0.52399066    -0.40900
C1501       C  0.09464449  0.09753118  0.53986206     0.32400
C1502       C  0.11441060  0.12113278  0.54158370     0.14100
F1503       F  0.17661046  0.09151950  0.49776800    -0.13200
F1504       F  0.06761571  0.10012776  0.55305633    -0.13700
F1505       F  0.13880666  0.04473396  0.49597177    -0.16000
F1506       F  0.10612130  0.14617169  0.55616600    -0.14600
F1507       F  0.11724977  0.17041334  0.50044075    -0.14600
F1508       F  0.23551250  0.17338216  0.53198890    -0.16000
C1509       C  0.04080424  0.61237013  0.13281181     0.14100
C1510       C  0.02314253  0.61197571  0.15856007     0.01000
C1511       C  0.00524144  0.58682423  0.16404422     0.16000
C1512       C  0.00427555  0.56316407  0.14364888     0.25400
C1513       C  0.02079491  0.56442759  0.11716800    -0.40900
C1514       C  0.03963088  0.58893414  0.11241477     0.32500
C1515       C  0.02193765  0.63856315  0.17847100     0.01100
F1516       F  0.98747053  0.58584271  0.18837742    -0.13200
F1517       F  0.05709015  0.59012749  0.08788954    -0.13700
C1518       C  0.01301447  0.66628352  0.16706894     0.16000
C1519       C  0.00857455  0.69058953  0.18604063     0.25400
C1520       C  0.01290124  0.68787125  0.21686430    -0.40900
C1521       C  0.02357564  0.66068468  0.22805960     0.32400
C1522       C  0.02810557  0.63629456  0.20906077     0.14100
F1523       F  0.00623311  0.66921725  0.13781981    -0.13200
F1524       F  0.02709928  0.65696797  0.25777524    -0.13700
F1525       F  0.99742709  0.71615926  0.17461693    -0.16000
F1526       F  0.03731907  0.61007576  0.22073342    -0.14600
F1527       F  0.05906532  0.63569447  0.12723917    -0.14600
F1528       F  0.98598902  0.53981125  0.14901194    -0.16000
C1529       C  0.99038178  0.81428871  0.32050367     0.14100
C1530       C  0.00813465  0.80609563  0.34492852     0.01000
C1531       C  0.02326394  0.77869586  0.34373402     0.16000
C1532       C  0.02017099  0.75973503  0.31893690     0.25400
C1533       C  0.00177426  0.76775139  0.29490721    -0.40900
C1534       C  0.98731097  0.79543855  0.29590139     0.32500
C1535       C  0.01114940  0.82670596  0.37100497     0.01100
F1536       F  0.04064776  0.77007777  0.36681625    -0.13200
F1537       F  0.96891641  0.80363610  0.27341365    -0.13700
C1538       C  0.00093120  0.81895052  0.39960302     0.16000
C1539       C  0.00187265  0.83960257  0.42323225     0.25400
C1540       C  0.01301016  0.86861335  0.41880895    -0.40900
C1541       C  0.02456100  0.87556256  0.39038036     0.32400
C1542       C  0.02323942  0.85513079  0.36689780     0.14100
F1543       F  0.98876986  0.79179899  0.40435479    -0.13200
F1544       F  0.03733537  0.90232489  0.38507076    -0.13700
F1545       F  0.99080742  0.83148202  0.45007361    -0.16000
F1546       F  0.03370295  0.86327596  0.33980443    -0.14600
F1547       F  0.97477494  0.84006299  0.32107210    -0.14600
F1548       F  0.03361394  0.73277855  0.31927232    -0.16000
C1549       C  0.00773149  0.37118295  0.85101465     0.14100
C1550       C  0.00666254  0.34060723  0.85730245     0.01000
C1551       C  0.00483393  0.33137677  0.88696647     0.16000
C1552       C  0.00407405  0.35215035  0.91000484     0.25400
C1553       C  0.00504166  0.38298565  0.90398536    -0.40900
C1554       C  0.00676219  0.39214716  0.87400396     0.32500
C1555       C  0.00750223  0.31835147  0.83294321     0.01100
F1556       F  0.00457823  0.30202308  0.89374802    -0.13200
F1557       F  0.00781384  0.42135345  0.86670551    -0.13700
C1558       C  0.03124071  0.31814644  0.81268817     0.16000
C1559       C  0.03060369  0.29937976  0.78798620     0.25400
C1560       C  0.00647960  0.28009062  0.78329368    -0.40900
C1561       C  0.98371842  0.27876911  0.80455637     0.32400
C1562       C  0.98411843  0.29788800  0.82914262     0.14100
F1563       F  0.05459433  0.33688002  0.81629866    -0.13200
F1564       F  0.95977784  0.26100530  0.80005583    -0.13700
F1565       F  0.05273302  0.30128976  0.76756516    -0.16000
F1566       F  0.96063879  0.29788088  0.84806871    -0.14600
F1567       F  0.00948361  0.38081539  0.82247505    -0.14600
F1568       F  0.00258762  0.34172605  0.93826384    -0.16000
C1569       C  0.01629122  0.15499729  0.69458267     0.14100
C1570       C  0.99488965  0.14861206  0.67258060     0.01000
C1571       C  0.96940763  0.16662090  0.67073951     0.16000
C1572       C  0.96675118  0.19194954  0.68839246     0.25400
C1573       C  0.98928193  0.19971943  0.70857240    -0.40900
C1574       C  0.01321549  0.18013016  0.71281989     0.32500
C1575       C  0.99964196  0.12457358  0.65027401     0.01100
F1576       F  0.94770444  0.16054920  0.65067845    -0.13200
F1577       F  0.03503394  0.18680753  0.73254050    -0.13700
C1578       C  0.00527922  0.09521268  0.65909940     0.16000
C1579       C  0.00771542  0.07251763  0.63792202     0.25400
C1580       C  0.00447249  0.07859111  0.60720091    -0.40900
C1581       C  0.00022768  0.10838695  0.59847323     0.32400
C1582       C  0.99792390  0.13097392  0.61970604     0.14100
F1583       F  0.00763873  0.08826046  0.68835503    -0.13200
F1584       F  0.99786722  0.11590248  0.56936505    -0.13700
F1585       F  0.01315588  0.04455648  0.64776596    -0.16000
F1586       F  0.99414286  0.15935851  0.61029176    -0.14600
F1587       F  0.04140038  0.13844400  0.69671372    -0.14600
F1588       F  0.94299892  0.21012203  0.68436622    -0.16000
C1589       C  0.98737093  0.63373362  0.91047471     0.14100
C1590       C  0.99648908  0.63014595  0.88085144     0.01000
C1591       C  0.00846891  0.60270876  0.87213376     0.16000
C1592       C  0.01046470  0.57897831  0.89221486     0.25400
C1593       C  0.00082495  0.58206332  0.92188425    -0.40900
C1594       C  0.98922208  0.60991654  0.93073184     0.32500
C1595       C  0.99223141  0.65400389  0.85818313     0.01100
F1596       F  0.01861730  0.59899590  0.84398061    -0.13200
F1597       F  0.97866247  0.61390853  0.95868759    -0.13700
C1598       C  0.00984527  0.67983947  0.85803092     0.16000
C1599       C  0.00922602  0.69939206  0.83356079     0.25400
C1600       C  0.99108207  0.69329493  0.80880134    -0.40900
C1601       C  0.97172149  0.66866885  0.81027120     0.32400
C1602       C  0.97223904  0.64940789  0.83468501     0.14100
F1603       F  0.02891875  0.68520700  0.88074283    -0.13200
F1604       F  0.95284318  0.66258937  0.78752047    -0.13700
F1605       F  0.02796937  0.72296909  0.83315511    -0.16000
F1606       F  0.95381616  0.62554001  0.83495395    -0.14600
F1607       F  0.97607240  0.66012226  0.91961072    -0.14600
F1608       F  0.02226120  0.55301785  0.88252879    -0.16000
C1609       C  0.98588835  0.82110151  0.71432572     0.14100
C1610       C  0.01317596  0.82818959  0.70093722     0.01000
C1611       C  0.03926630  0.81499513  0.71200193     0.16000
C1612       C  0.03758795  0.79284592  0.73397439     0.25400
C1613       C  0.00985320  0.78371557  0.74531988    -0.40900
C1614       C  0.98431188  0.79942646  0.73659750     0.32500
C1615       C  0.01353368  0.84767135  0.67416766     0.01100
F1616       F  0.06608596  0.82209425  0.70015706    -0.13200
F1617       F  0.95715597  0.79035995  0.74610900    -0.13700
C1618       C  0.00559543  0.87758535  0.67667377     0.16000
C1619       C  0.00260921  0.89544173  0.65137262     0.25400
C1620       C  0.00745058  0.88383095  0.62248402    -0.40900
C1621       C  0.01527649  0.85355008  0.62010316     0.32400
C1622       C  0.01849582  0.83579484  0.64568508     0.14100
F1623       F  0.00038602  0.88951976  0.70385921    -0.13200
F1624       F  0.01973741  0.84094455  0.59310369    -0.13700
F1625       F  0.99434976  0.92411314  0.65546182    -0.16000
F1626       F  0.02559823  0.80668244  0.64259814    -0.14600
F1627       F  0.96030171  0.83297296  0.70363124    -0.14600
F1628       F  0.06255626  0.77755304  0.74128770    -0.16000
C1629       C  0.11522832  0.66101316  0.45379645     0.14100
C1630       C  0.14464525  0.65027725  0.45442105     0.01000
C1631       C  0.14913173  0.61955754  0.45617522     0.16000
C1632       C  0.12515892  0.60002202  0.45895672     0.25400
C1633       C  0.09536890  0.61035637  0.45844460    -0.40900
C1634       C  0.09084186  0.64128744  0.45528645     0.32500
C1635       C  0.17087980  0.67059159  0.45682474     0.01100
F1636       F  0.17715092  0.60834619  0.45582628    -0.13200
F1637       F  0.06292732  0.65263830  0.45413304    -0.13700
C1638       C  0.18917971  0.66872883  0.48206094     0.16000
C1639       C  0.21387611  0.68726300  0.48524858     0.25400
C1640       C  0.22030870  0.70932866  0.46404961    -0.40900
C1641       C  0.20263455  0.71077114  0.43823718     0.32400
C1642       C  0.17823432  0.69135788  0.43453283     0.14100
F1643       F  0.18202716  0.65007363  0.50466498    -0.13200
F1644       F  0.20761862  0.73228807  0.41773175    -0.13700
F1645       F  0.23040277  0.68518436  0.51042106    -0.16000
F1646       F  0.16132183  0.69340799  0.40964985    -0.14600
F1647       F  0.11009760  0.69067896  0.45291260    -0.14600
F1648       F  0.13161539  0.57085282  0.46286625    -0.16000
C1649       C  0.84064171  0.40282746  0.48726585     0.14100
C1650       C  0.84655167  0.37240065  0.48594549     0.01000
C1651       C  0.87590015  0.36277505  0.48150195     0.16000
C1652       C  0.89921659  0.38325611  0.47881376     0.25400
C1653       C  0.89362082  0.41403668  0.48019205    -0.40900
C1654       C  0.86378311  0.42345799  0.48452733     0.32500
C1655       C  0.82274450  0.35035423  0.49144668     0.01100
F1656       F  0.88197759  0.33331400  0.47996436    -0.13200
F1657       F  0.85672473  0.45266999  0.48669441    -0.13700
C1658       C  0.80396862  0.34071663  0.46841103     0.16000
C1659       C  0.78538664  0.31601450  0.47263921     0.25400
C1660       C  0.78570257  0.30061847  0.49981489    -0.40900
C1661       C  0.80244103  0.31202977  0.52356370     0.32400
C1662       C  0.82072840  0.33678243  0.51942710     0.14100
F1663       F  0.80499288  0.35405573  0.44138772    -0.13200
F1664       F  0.80204956  0.29834521  0.55043749    -0.13700
F1665       F  0.76899357  0.30569593  0.44953507    -0.16000
F1666       F  0.83767450  0.34666889  0.54232850    -0.14600
F1667       F  0.81245310  0.41258225  0.49181926    -0.14600
F1668       F  0.92723029  0.37275468  0.47508218    -0.16000
C1669       C  0.11230434  0.36293700  0.45858904     0.14100
C1670       C  0.14224903  0.37158966  0.45820300     0.01000
C1671       C  0.14913578  0.40194071  0.45818166     0.16000
C1672       C  0.12641901  0.42332199  0.45938188     0.25400
C1673       C  0.09608633  0.41474838  0.46066529    -0.40900
C1674       C  0.08951419  0.38410160  0.45994128     0.32500
C1675       C  0.16576937  0.34871904  0.46208576     0.01100
F1676       F  0.17794476  0.41089375  0.45774769    -0.13200
F1677       F  0.06102578  0.37429806  0.46118892    -0.13700
C1678       C  0.17828629  0.33364604  0.43772144     0.16000
C1679       C  0.19689888  0.30888794  0.44231737     0.25400
C1680       C  0.20289333  0.29879355  0.47132115    -0.40900
C1681       C  0.19121410  0.31468747  0.49550915     0.32400
C1682       C  0.17311613  0.33950935  0.49093944     0.14100
F1683       F  0.17135601  0.34202630  0.40959130    -0.13200
F1684       F  0.19640124  0.30535999  0.52372363    -0.13700
F1685       F  0.20722589  0.29354986  0.41852856    -0.16000
F1686       F  0.16138029  0.35371715  0.51478441    -0.14600
F1687       F  0.10513601  0.33368764  0.45860038    -0.14600
F1688       F  0.13441015  0.45236979  0.46004863    -0.16000
C1689       C  0.82264025  0.69727653  0.44394884     0.14100
C1690       C  0.81801825  0.66830293  0.45459065     0.01000
C1691       C  0.78975076  0.66083816  0.46587996     0.16000
C1692       C  0.76787655  0.68283235  0.46968793     0.25400
C1693       C  0.77381355  0.71247829  0.46197447    -0.40900
C1694       C  0.80086144  0.71914949  0.44779556     0.32500
C1695       C  0.84358102  0.64723934  0.45698445     0.01100
F1696       F  0.78421054  0.63290037  0.47571086    -0.13200
F1697       F  0.80733032  0.74760847  0.44029122    -0.13700
C1698       C  0.86937291  0.65546879  0.47281889     0.16000
C1699       C  0.89340532  0.63580768  0.47576953     0.25400
C1700       C  0.89218650  0.60737143  0.46303521    -0.40900
C1701       C  0.86620990  0.59906718  0.44745293     0.32400
C1702       C  0.84225782  0.61873935  0.44446904     0.14100
F1703       F  0.87088958  0.68232034  0.48636879    -0.13200
F1704       F  0.86406551  0.57190154  0.43464762    -0.13700
F1705       F  0.91729708  0.64415809  0.49217839    -0.16000
F1706       F  0.81788906  0.60998619  0.42899976    -0.14600
F1707       F  0.84905641  0.70484914  0.43148740    -0.14600
F1708       F  0.74209432  0.67574328  0.48362425    -0.16000
C1709       C  0.11810573  0.49116346  0.32377037     0.14100
C1710       C  0.14112537  0.51224921  0.32613915     0.01000
C1711       C  0.13833069  0.53494995  0.34733442     0.16000
C1712       C  0.11373950  0.53573960  0.36665385     0.25400
C1713       C  0.09104492  0.51418165  0.36484332    -0.40900
C1714       C  0.09319732  0.49227397  0.34270307     0.32500
C1715       C  0.16859160  0.50930279  0.30756143     0.01100
F1716       F  0.15988731  0.55584878  0.34994563    -0.13200
F1717       F  0.07198589  0.47098499  0.34043318    -0.13700
C1718       C  0.17294273  0.52673356  0.28191764     0.16000
C1719       C  0.19632597  0.52033586  0.26200900     0.25400
C1720       C  0.21623886  0.49693544  0.26787934    -0.40900
C1721       C  0.21312576  0.48116591  0.29471807     0.32400
C1722       C  0.18953819  0.48712921  0.31420246     0.14100
F1723       F  0.15335154  0.54860726  0.27513909    -0.13200
F1724       F  0.23168096  0.45819305  0.30086187    -0.13700
F1725       F  0.19772395  0.53504072  0.23572054    -0.16000
F1726       F  0.18625753  0.47013794  0.33889532    -0.14600
F1727       F  0.12009210  0.46906552  0.30340533    -0.14600
F1728       F  0.11217036  0.55752967  0.38740517    -0.16000
C1729       C  0.87007162  0.50748227  0.32454866     0.14100
C1730       C  0.84081970  0.51173241  0.33469556     0.01000
C1731       C  0.83570985  0.51372644  0.36536216     0.16000
C1732       C  0.85928681  0.51151879  0.38554947     0.25400
C1733       C  0.88890297  0.50794798  0.37551893    -0.40900
C1734       C  0.89382265  0.50572217  0.34460673     0.32500
C1735       C  0.81559500  0.51145720  0.31329815     0.01100
F1736       F  0.80774752  0.51800346  0.37584207    -0.13200
F1737       F  0.92159061  0.50166776  0.33353609    -0.13700
C1738       C  0.79379860  0.48920526  0.31532211     0.16000
C1739       C  0.77401042  0.48446370  0.29185417     0.25400
C1740       C  0.77492842  0.50242212  0.26635733    -0.40900
C1741       C  0.79468923  0.52656997  0.26557622     0.32400
C1742       C  0.81497409  0.53101469  0.28888041     0.14100
F1743       F  0.79348538  0.47018471  0.33872086    -0.13200
F1744       F  0.79639460  0.54395904  0.24099894    -0.13700
F1745       F  0.75606204  0.46025497  0.29257469    -0.16000
F1746       F  0.83515739  0.55332244  0.28684167    -0.14600
F1747       F  0.87560928  0.50417036  0.29509067    -0.14600
F1748       F  0.85280479  0.51292329  0.41495761    -0.16000
C1749       C  0.11830391  0.51259846  0.61169609     0.14100
C1750       C  0.14785811  0.51487439  0.60181296     0.01000
C1751       C  0.15341883  0.51568658  0.57117326     0.16000
C1752       C  0.12984445  0.51484793  0.55075046     0.25400
C1753       C  0.09994011  0.51326041  0.56055829    -0.40900
C1754       C  0.09467584  0.51173074  0.59145424     0.32500
C1755       C  0.17246654  0.51703650  0.62385723     0.01100
F1756       F  0.18170101  0.51817208  0.56098679    -0.13200
F1757       F  0.06665790  0.50932488  0.60237919    -0.13700
C1758       C  0.19405409  0.49453945  0.62643968     0.16000
C1759       C  0.21357463  0.49406417  0.65085075     0.25400
C1760       C  0.21190366  0.51614638  0.67281653    -0.40900
C1761       C  0.19208704  0.53994256  0.66873770     0.32400
C1762       C  0.17264832  0.54042981  0.64445626     0.14100
F1763       F  0.19464500  0.47179127  0.60671421    -0.13200
F1764       F  0.19010212  0.56168572  0.68949103    -0.13700
F1765       F  0.23199465  0.47050415  0.65460919    -0.16000
F1766       F  0.15280151  0.56298651  0.64187061    -0.14600
F1767       F  0.11227410  0.51108746  0.64121057    -0.14600
F1768       F  0.13654923  0.51588649  0.52136693    -0.16000
C1769       C  0.85051343  0.53265360  0.58970421     0.14100
C1770       C  0.85728422  0.52337472  0.61864395     0.01000
C1771       C  0.88534526  0.51098963  0.62443305     0.16000
C1772       C  0.90634040  0.50786745  0.60160422     0.25400
C1773       C  0.89971197  0.51703877  0.57233391    -0.40900
C1774       C  0.87132379  0.52936470  0.56673805     0.32500
C1775       C  0.83509248  0.52648900  0.64285837     0.01100
F1776       F  0.89231066  0.50162672  0.65226022    -0.13200
F1777       F  0.86380448  0.53902034  0.53917458    -0.13700
C1778       C  0.80992880  0.50798298  0.64390852     0.16000
C1779       C  0.79034108  0.50913592  0.66816563     0.25400
C1780       C  0.79603238  0.52836972  0.69203216    -0.40900
C1781       C  0.82053846  0.54784204  0.69022070     0.32400
C1782       C  0.83975536  0.54699952  0.66580775     0.14100
F1783       F  0.80548274  0.48738445  0.62240486    -0.13200
F1784       F  0.82677327  0.56668252  0.71292834    -0.13700
F1785       F  0.76743973  0.48959482  0.66956464    -0.16000
F1786       F  0.86358625  0.56547496  0.66507873    -0.14600
F1787       F  0.82388889  0.54558352  0.58385424    -0.14600
F1788       F  0.93298578  0.49542602  0.60819630    -0.16000
C1789       C  0.91677067  0.61210126  0.33966769     0.14100
C1790       C  0.92648225  0.64121991  0.33484736     0.01000
C1791       C  0.95244233  0.65134657  0.34926969     0.16000
C1792       C  0.96832009  0.63264069  0.36821576     0.25400
C1793       C  0.95906562  0.60327442  0.37230955    -0.40900
C1794       C  0.93301832  0.59326080  0.35814114     0.32500
C1795       C  0.91243291  0.66017560  0.31207594     0.01100
F1796       F  0.96323636  0.67898796  0.34394805    -0.13200
F1797       F  0.92280891  0.56539464  0.36284338    -0.13700
C1798       C  0.90633701  0.68999437  0.31872743     0.16000
C1799       C  0.91008757  0.71150504  0.29671046     0.25400
C1800       C  0.92106338  0.70276435  0.26874506    -0.40900
C1801       C  0.91624812  0.67312032  0.26008190     0.32400
C1802       C  0.91373231  0.65145515  0.28212501     0.14100
F1803       F  0.90230455  0.69863874  0.34732442    -0.13200
F1804       F  0.92133343  0.66443909  0.23165051    -0.13700
F1805       F  0.90991353  0.74054298  0.30471673    -0.16000
F1806       F  0.91796336  0.62258953  0.27463407    -0.14600
F1807       F  0.89166446  0.60189232  0.32641302    -0.14600
F1808       F  0.99326039  0.64289432  0.38173688    -0.16000
C1809       C  0.97408623  0.39496823  0.61366460     0.14100
C1810       C  0.99088036  0.36899830  0.61066981     0.01000
C1811       C  0.00993674  0.36547314  0.58631366     0.16000
C1812       C  0.01207288  0.38779675  0.56491895     0.25400
C1813       C  0.99531212  0.41398311  0.56786075    -0.40900
C1814       C  0.97634628  0.41741535  0.59243317     0.32500
C1815       C  0.99048756  0.34670050  0.63432918     0.01100
F1816       F  0.02687025  0.34067797  0.58365435    -0.13200
F1817       F  0.95946376  0.44214435  0.59548869    -0.13700
C1818       C  0.97159946  0.32203425  0.63266680     0.16000
C1819       C  0.97237971  0.30041447  0.65494339     0.25400
C1820       C  0.99167387  0.30370203  0.67936949    -0.40900
C1821       C  0.00991900  0.32901547  0.68119810     0.32400
C1822       C  0.00939863  0.35023203  0.65872850     0.14100
F1823       F  0.95226292  0.31914628  0.60968933    -0.13200
F1824       F  0.02885321  0.33294024  0.70435478    -0.13700
F1825       F  0.95379759  0.27675534  0.65301691    -0.16000
F1826       F  0.02747926  0.37427479  0.66064489    -0.14600
F1827       F  0.95567913  0.39855773  0.63728124    -0.14600
F1828       F  0.03110647  0.38421921  0.54179055    -0.16000
C1829       C  0.01501625  0.65095086  0.59295705     0.14100
C1830       C  0.99557928  0.64514232  0.61665419     0.01000
C1831       C  0.97426150  0.62271143  0.61432239     0.16000
C1832       C  0.97340189  0.60489697  0.58923360     0.25400
C1833       C  0.99363016  0.60966133  0.56594664    -0.40900
C1834       C  0.01386665  0.63331601  0.56743904     0.32500
C1835       C  0.99758589  0.66146518  0.64456550     0.01100
F1836       F  0.95479477  0.61766819  0.63682521    -0.13200
F1837       F  0.03361767  0.63804074  0.54513672    -0.13700
C1838       C  0.98479051  0.68961833  0.64679749     0.16000
C1839       C  0.98348172  0.70369688  0.67425273     0.25400
C1840       C  0.99479178  0.68956902  0.69983043    -0.40900
C1841       C  0.00688287  0.66097960  0.69761617     0.32400
C1842       C  0.00863086  0.64716059  0.66998637     0.14100
F1843       F  0.97281073  0.70300324  0.62254758    -0.13200
F1844       F  0.01772609  0.64682266  0.72194340    -0.13700
F1845       F  0.97063032  0.73091974  0.67595719    -0.16000
F1846       F  0.02092384  0.61972718  0.66793224    -0.14600
F1847       F  0.03579163  0.67268617  0.59512123    -0.14600
F1848       F  0.95323812  0.58250485  0.58793577    -0.16000
C1849       C  0.98987235  0.26817586  0.15853516     0.14100
C1850       C  0.01523501  0.28644151  0.15866245     0.01000
C1851       C  0.03746581  0.28102184  0.17998806     0.16000
C1852       C  0.03310915  0.25970625  0.20241072     0.25400
C1853       C  0.00622071  0.24388346  0.20425979    -0.40900
C1854       C  0.98524073  0.24738311  0.18135170     0.32500
C1855       C  0.01682248  0.31298581  0.13875395     0.01100
F1856       F  0.06259009  0.29767770  0.18018602    -0.13200
F1857       F  0.95874604  0.23305038  0.18296470    -0.13700
C1858       C  0.01247828  0.34164139  0.15034658     0.16000
C1859       C  0.01192245  0.36666127  0.13158450     0.25400
C1860       C  0.01598895  0.36372373  0.10055576    -0.40900
C1861       C  0.02110617  0.33480091  0.08926818     0.32400
C1862       C  0.02126598  0.30987640  0.10809294     0.14100
F1863       F  0.00796360  0.34531382  0.17993979    -0.13200
F1864       F  0.02619692  0.33038477  0.05989355    -0.13700
F1865       F  0.00673699  0.39363495  0.14392092    -0.16000
F1866       F  0.02596707  0.28256145  0.09632865    -0.14600
F1867       F  0.96831452  0.27233788  0.13785158    -0.14600
F1868       F  0.05374886  0.25685339  0.22423573    -0.16000
C1869       C  0.02312639  0.11195405  0.38301675     0.14100
C1870       C  0.00635271  0.10520951  0.35741768     0.01000
C1871       C  0.99134227  0.07783002  0.35639955     0.16000
C1872       C  0.99227662  0.05811847  0.38054849     0.25400
C1873       C  0.00845065  0.06504317  0.40647993    -0.40900
C1874       C  0.02409219  0.09217409  0.40728805     0.32500
C1875       C  0.00236634  0.12755166  0.33294951     0.01100
F1876       F  0.97540555  0.07021403  0.33195806    -0.13200
F1877       F  0.04044537  0.09956316  0.43152493    -0.13700
C1878       C  0.02683917  0.14034825  0.31806403     0.16000
C1879       C  0.02260833  0.16302762  0.29686055     0.25400
C1880       C  0.99389448  0.17353995  0.29036103    -0.40900
C1881       C  0.96945871  0.15980796  0.30420867     0.32400
C1882       C  0.97359997  0.13710540  0.32511650     0.14100
F1883       F  0.05489456  0.13134013  0.32449849    -0.13200
F1884       F  0.94141354  0.16926718  0.29829348    -0.13700
F1885       F  0.04665767  0.17605657  0.28417173    -0.16000
F1886       F  0.94941173  0.12562936  0.33901626    -0.14600
F1887       F  0.03775381  0.13822261  0.38499887    -0.14600
F1888       F  0.97619994  0.03267906  0.37897555    -0.16000
C1889       C  0.94501698  0.36567155  0.36750762     0.14100
C1890       C  0.95928779  0.36011960  0.34046691     0.01000
C1891       C  0.98036259  0.38057801  0.32964912     0.16000
C1892       C  0.98832695  0.40538480  0.34668172     0.25400
C1893       C  0.97549713  0.40963349  0.37479731    -0.40900
C1894       C  0.95314405  0.39007635  0.38458667     0.32500
C1895       C  0.95574057  0.33096404  0.32601678     0.01100
F1896       F  0.99450705  0.37550593  0.30350124    -0.13200
F1897       F  0.93930997  0.39446846  0.41102472    -0.13700
C1898       C  0.94562571  0.32868636  0.29665370     0.16000
C1899       C  0.94821393  0.30178002  0.28141915     0.25400
C1900       C  0.96110532  0.27688012  0.29540663    -0.40900
C1901       C  0.96855546  0.27862216  0.32570160     0.32400
C1902       C  0.96566814  0.30540914  0.34089810     0.14100
F1903       F  0.93425831  0.35275646  0.28249254    -0.13200
F1904       F  0.98140268  0.25535398  0.33994121    -0.13700
F1905       F  0.93945781  0.30046353  0.25257801    -0.16000
F1906       F  0.97486466  0.30696087  0.36958769    -0.14600
F1907       F  0.92390318  0.34679200  0.37785328    -0.14600
F1908       F  0.00969813  0.42409701  0.33655754    -0.16000
loop_ 
_geom_bond_atom_site_label_1 
_geom_bond_atom_site_label_2 
_geom_bond_distance 
_geom_bond_site_symmetry_2 
_ccdc_geom_bond_type 
C1            N2   1.352       .  A
C1            N6   1.371       .  A
C1         C1853   1.479   1_655  S
N2            C3   1.349       .  A
C3            N4   1.355       .  A
C3         C1900   1.478       .  S
N4            C5   1.360       .  A
C5            N6   1.373       .  A
C5         C1880   1.489       .  S
O7          Zr43   2.453       .  S
O7           C18   1.294       .  A
O8          Zr42   2.441       .  S
O8           C19   1.293       .  A
O9          Zr15   2.468   1_455  S
O9           C20   1.299       .  A
O10         Zr15   2.480       .  S
O10          C21   1.300       .  A
O11         Zr45   2.416       .  S
O11          C21   1.287       .  A
O12         Zr44   2.435       .  S
O12          C20   1.292       .  A
O13         Zr15   2.420       .  S
O13          C19   1.289       .  A
O14         Zr15   2.420       .  S
O14          C18   1.290       .  A
Zr15         O16   2.341       .  S
Zr15         O17   2.348   1_655  S
Zr15         O25   2.334       .  S
Zr15         O23   2.340   1_655  S
O16         Zr42   2.332       .  S
O16         Zr45   2.331       .  S
O17         Zr43   2.337   1_455  S
O17         Zr44   2.344       .  S
C18        C1893   1.473       .  S
C19        C1813   1.470       .  S
C20        C1673   1.504       .  S
C21        C1653   1.502       .  S
H22          O23   0.966       .  S
O23         Zr42   2.339   1_455  S
O23         Zr44   2.347       .  S
H24          O25   0.966       .  S
O25         Zr43   2.349       .  S
O25         Zr45   2.339       .  S
O26         Zr42   2.409       .  S
O26          C49   1.288       .  A
O27         Zr43   2.430       .  S
O27          C50   1.291       .  A
O28         Zr44   2.439       .  S
O28          C51   1.292       .  A
O29         Zr45   2.447       .  S
O29          C52   1.293       .  A
O30         Zr45   2.434       .  S
O30          C53   1.291       .  A
O31         Zr44   2.438       .  S
O31          C54   1.292       .  A
O32         Zr46   2.486   1_455  S
O32          C55   1.301       .  A
O33         Zr46   2.473       .  S
O33          C56   1.299       .  A
O34         Zr44   2.432       .  S
O34          C55   1.291       .  A
O35         Zr45   2.422       .  S
O35          C56   1.289       .  A
O36         Zr42   2.457   1_455  S
O36          C51   1.297       .  A
O37         Zr43   2.488   1_455  S
O37          C54   1.302       .  A
O38         Zr43   2.456       .  S
O38          C53   1.296       .  A
O39         Zr42   2.462       .  S
O39          C52   1.296       .  A
O40         Zr46   2.444       .  S
O40          C49   1.293       .  A
O41         Zr46   2.433       .  S
O41          C50   1.292       .  A
Zr42         O48   2.351   1_655  S
Zr42         O60   2.348       .  S
Zr43         O47   2.342       .  S
Zr43         O58   2.358   1_655  S
Zr44         O48   2.340       .  S
Zr44         O58   2.348       .  S
Zr45         O47   2.325       .  S
Zr45         O60   2.333       .  S
Zr46         O47   2.337       .  S
Zr46         O48   2.347   1_655  S
Zr46         O60   2.352       .  S
Zr46         O58   2.359   1_655  S
C49        C1833   1.459       .  S
C50        C1793   1.469       .  S
C51        C1753   1.501       .  S
C52        C1773   1.499       .  S
C53        C1733   1.499       .  S
C54        C1713   1.496       .  S
C55        C1633   1.512       .  S
C56        C1700   1.491       .  S
H57          O58   0.965       .  S
H59          O60   0.966       .  S
C61          N62   1.376   1_655  A
C61          N66   1.363       .  A
C61        C1600   1.494       .  S
N62          C63   1.371       .  A
C63          N64   1.345       .  A
C63        C1613   1.472       .  S
N64          C65   1.341   1_455  A
C65          N66   1.353       .  A
C65        C1840   1.464       .  S
C67          N68   1.353   1_455  A
C67          N72   1.368   1_455  A
C67        C1560   1.473       .  S
N68          C69   1.349       .  A
C69          N70   1.351       .  A
C69        C1820   1.472       .  S
N70          C71   1.358       .  A
C71          N72   1.369       .  A
C71        C1573   1.479       .  S
C73          N74   1.353       .  A
C73          N78   1.374   1_655  A
C73        C1520   1.484   1_655  S
N74          C75   1.352       .  A
C75          N76   1.353       .  A
C75        C1800   1.486       .  S
N76          C77   1.355       .  A
C77          N78   1.375   1_655  A
C77        C1533   1.491   1_655  S
O79        Zr115   2.454   1_545  S
O79          C90   1.296       .  A
O80        Zr114   2.436   1_545  S
O80          C91   1.291       .  A
O81         Zr87   2.432   1_655  S
O81          C92   1.291       .  A
O82         Zr87   2.412       .  S
O82          C93   1.288       .  A
O83        Zr117   2.421   1_545  S
O83          C93   1.289       .  A
O84        Zr116   2.456   1_545  S
O84          C92   1.295       .  A
O85         Zr87   2.460       .  S
O85          C91   1.296       .  A
O86         Zr87   2.473       .  S
O86          C90   1.299       .  A
Zr87         O88   2.341       .  S
Zr87         O89   2.344   1_455  S
Zr87         O97   2.347       .  S
Zr87         O95   2.343   1_455  S
O88        Zr114   2.329   1_545  S
O88        Zr117   2.342   1_545  S
O89        Zr115   2.346   1_645  S
O89        Zr116   2.343   1_545  S
C90        C1873   1.500       .  S
C91        C1580   1.501       .  S
C92        C1480   1.477       .  S
C93        C1500   1.461       .  S
H94          O95   0.965       .  S
O95        Zr114   2.337   1_645  S
O95        Zr116   2.345   1_545  S
H96          O97   0.967       .  S
O97        Zr115   2.344   1_545  S
O97        Zr117   2.345   1_545  S
O98        Zr114   2.428       .  S
O98         C121   1.290       .  A
O99        Zr115   2.446       .  S
O99         C122   1.294       .  A
O100       Zr116   2.473       .  S
O100        C123   1.299       .  A
O101       Zr117   2.464       .  S
O101        C124   1.297       .  A
O102       Zr117   2.474       .  S
O102        C125   1.299       .  A
O103       Zr116   2.477       .  S
O103        C126   1.300       .  A
O104       Zr118   2.432   1_655  S
O104        C127   1.291       .  A
O105       Zr118   2.434       .  S
O105        C128   1.291       .  A
O106       Zr116   2.423       .  S
O106        C127   1.290       .  A
O107       Zr117   2.423       .  S
O107        C128   1.291       .  A
O108       Zr114   2.426   1_655  S
O108        C123   1.289       .  A
O109       Zr115   2.438   1_655  S
O109        C126   1.293       .  A
O110       Zr115   2.435       .  S
O110        C125   1.292       .  A
O111       Zr114   2.436       .  S
O111        C124   1.291       .  A
O112       Zr118   2.486       .  S
O112        C121   1.301       .  A
O113       Zr118   2.492       .  S
O113        C122   1.302       .  A
Zr114       O120   2.330   1_455  S
Zr114       O132   2.322       .  S
Zr115       O119   2.349       .  S
Zr115       O130   2.352   1_455  S
Zr116       O120   2.343       .  S
Zr116       O130   2.361       .  S
Zr117       O119   2.350       .  S
Zr117       O132   2.334       .  S
Zr118       O119   2.355       .  S
Zr118       O120   2.344   1_455  S
Zr118       O132   2.338       .  S
Zr118       O130   2.357   1_455  S
C121       C1620   1.507       .  S
C122       C1540   1.513       .  S
C123       C1353   1.504       .  S
C124       C1380   1.498       .  S
C125       C1400   1.505       .  S
C126       C1413   1.505       .  S
C127       C1453   1.465       .  S
C128       C1433   1.471       .  S
H129        O130   0.968       .  S
H131        O132   0.962       .  S
C133        N134   1.360       .  A
C133        N138   1.370       .  A
C133       C1680   1.484       .  S
N134        C135   1.356       .  A
C135        N136   1.344       .  A
C135       C1493   1.472       .  S
N136        C137   1.348       .  A
C137        N138   1.368       .  A
C137       C1333   1.468       .  S
C139        N140   1.363       .  A
C139        N144   1.355       .  A
C139       C1313   1.469       .  S
N140        C141   1.365       .  A
C141        N142   1.361       .  A
C141       C1660   1.477       .  S
N142        C143   1.358       .  A
C143        N144   1.352       .  A
C143       C1473   1.489       .  S
C145        N146   1.355       .  A
C145        N150   1.372       .  A
C145       C1300   1.482       .  S
N146        C147   1.351       .  A
C147        N148   1.352       .  A
C147       C1460   1.479       .  S
N148        C149   1.355       .  A
C149        N150   1.371       .  A
C149       C1693   1.481       .  S
C151        N152   1.354       .  A
C151        N156   1.375       .  A
C151       C1640   1.487       .  S
N152        C153   1.348       .  A
C153        N154   1.349       .  A
C153       C1440   1.475       .  S
N154        C155   1.353       .  A
C155        N156   1.376       .  A
C155       C1280   1.483       .  S
C157        N158   1.351       .  A
C157        N162   1.369       .  A
C157       C1240   1.467       .  S
N158        C159   1.346   1_565  A
C159        N160   1.350   1_545  A
C159       C1260   1.470       .  S
N160        C161   1.354       .  A
C161        N162   1.369       .  A
C161       C1420   1.475       .  S
O163       Zr199   2.432       .  S
O163        C174   1.291       .  A
O164       Zr198   2.452       .  S
O164        C175   1.295       .  A
O165       Zr171   2.425       .  S
O165        C176   1.290       .  A
O166       Zr171   2.453       .  S
O166        C177   1.295   1_545  A
O167       Zr201   2.399   1_565  S
O167        C177   1.286       .  A
O168       Zr200   2.435       .  S
O168        C176   1.291       .  A
O169       Zr171   2.463   1_565  S
O169        C175   1.297       .  A
O170       Zr171   2.464       .  S
O170        C174   1.297       .  A
Zr171       O172   2.335   1_545  S
Zr171       O173   2.338       .  S
Zr171       O181   2.349       .  S
Zr171       O179   2.356   1_545  S
O172       Zr198   2.332       .  S
O172       Zr201   2.335   1_565  S
O173       Zr199   2.326       .  S
O173       Zr200   2.338       .  S
C174       C1340   1.501       .  S
C175       C1273   1.500       .  S
C176       C1173   1.462       .  S
C177       C1220   1.472       .  S
H178        O179   0.984       .  S
O179       Zr198   2.355       .  S
O179       Zr200   2.358   1_565  S
H180        O181   0.960       .  S
O181       Zr199   2.345       .  S
O181       Zr201   2.343       .  S
O182       Zr198   2.440       .  S
O182        C205   1.293       .  A
O183       Zr199   2.431       .  S
O183        C206   1.291       .  A
O184       Zr200   2.482   1_565  S
O184        C207   1.300       .  A
O185       Zr201   2.450   1_565  S
O185        C208   1.295       .  A
O186       Zr201   2.463       .  S
O186        C209   1.297       .  A
O187       Zr200   2.478       .  S
O187        C210   1.299       .  A
O188       Zr202   2.421       .  S
O188        C211   1.290       .  A
O189       Zr202   2.452       .  S
O189        C212   1.295       .  A
O190       Zr200   2.442       .  S
O190        C211   1.293       .  A
O191       Zr201   2.404       .  S
O191        C212   1.286       .  A
O192       Zr198   2.439       .  S
O192        C207   1.292       .  A
O193       Zr199   2.431       .  S
O193        C210   1.291       .  A
O194       Zr199   2.436       .  S
O194        C209   1.291       .  A
O195       Zr198   2.472       .  S
O195        C208   1.298       .  A
O196       Zr202   2.463   1_565  S
O196        C205   1.297       .  A
O197       Zr202   2.459       .  S
O197        C206   1.296       .  A
Zr198       O204   2.350       .  S
Zr198       O216   2.348       .  S
Zr199       O203   2.336       .  S
Zr199       O214   2.337       .  S
Zr200       O204   2.350   1_545  S
Zr200       O214   2.347       .  S
Zr201       O203   2.330       .  S
Zr201       O216   2.342   1_545  S
Zr202       O203   2.339       .  S
Zr202       O204   2.352   1_545  S
Zr202       O216   2.341   1_545  S
Zr202       O214   2.346       .  S
C205       C1293   1.497       .  S
C206       C1320   1.485       .  S
C207       C1113   1.486       .  S
C208       C1153   1.504       .  S
C209       C1133   1.501       .  S
C210       C1100   1.504       .  S
C211       C1253   1.474       .  S
C212       C1193   1.486       .  S
H213        O214   0.955       .  S
H215        O216   0.960       .  S
C217        N218   1.359       .  A
C217        N222   1.368       .  A
C217       C1073   1.480       .  S
N218        C219   1.354       .  A
C219        N220   1.348       .  A
C219       C1213   1.480       .  S
N220        C221   1.353       .  A
C221        N222   1.366       .  A
C221       C1373   1.468       .  S
C223        N224   1.357       .  A
C223        N228   1.372       .  A
C223       C1053   1.488       .  S
N224        C225   1.351       .  A
C225        N226   1.348       .  A
C225       C1200   1.469       .  S
N226        C227   1.355       .  A
C227        N228   1.372       .  A
C227       C1360   1.482       .  S
C229        N230   1.351       .  A
C229        N234   1.368   1_545  A
C229       C1033   1.475   1_545  S
N230        C231   1.349       .  A
C231        N232   1.352       .  A
C231       C1180   1.483       .  S
N232        C233   1.358       .  A
C233        N234   1.369   1_545  A
C233       C1393   1.478   1_545  S
O235       Zr271   2.442       .  S
O235        C246   1.294       .  A
O236       Zr270   2.434       .  S
O236        C247   1.291       .  A
O237       Zr243   2.448   1_545  S
O237        C248   1.293       .  A
O238       Zr243   2.449       .  S
O238        C249   1.294       .  A
O239       Zr273   2.435       .  S
O239        C249   1.291       .  A
O240       Zr272   2.387       .  S
O240        C248   1.284       .  A
O241       Zr243   2.471       .  S
O241        C247   1.298       .  A
O242       Zr243   2.452       .  S
O242        C246   1.295       .  A
Zr243       O244   2.325       .  S
Zr243       O245   2.350   1_565  S
Zr243       O253   2.361       .  S
Zr243       O251   2.344   1_565  S
O244       Zr270   2.317       .  S
O244       Zr273   2.334       .  S
O245       Zr271   2.337   1_545  S
O245       Zr272   2.339       .  S
C246       C1233   1.480       .  S
C247       C1040   1.505       .  S
C248       C1013   1.456       .  S
C249       C1000   1.478       .  S
H250        O251   0.966       .  S
O251       Zr270   2.348   1_545  S
O251       Zr272   2.344       .  S
H252        O253   0.966       .  S
O253       Zr271   2.359       .  S
O253       Zr273   2.343       .  S
O254       Zr270   2.434   1_556  S
O254        C277   1.291       .  A
O255       Zr271   2.453   1_556  S
O255        C278   1.295       .  A
O256       Zr272   2.448       .  S
O256        C279   1.295       .  A
O257       Zr273   2.448       .  S
O257        C280   1.294       .  A
O258       Zr273   2.480       .  S
O258        C281   1.300       .  A
O259       Zr272   2.467       .  S
O259        C282   1.298       .  A
O260       Zr274   2.438   1_545  S
O260        C283   1.292       .  A
O261       Zr274   2.386       .  S
O261        C284   1.283       .  A
O262       Zr272   2.413   1_556  S
O262        C283   1.288       .  A
O263       Zr273   2.439   1_556  S
O263        C284   1.291       .  A
O264       Zr270   2.440   1_545  S
O264        C279   1.292       .  A
O265       Zr271   2.446   1_545  S
O265        C282   1.294       .  A
O266       Zr271   2.430       .  S
O266        C281   1.290       .  A
O267       Zr270   2.447       .  S
O267        C280   1.294       .  A
O268       Zr274   2.465       .  S
O268        C277   1.298       .  A
O269       Zr274   2.477       .  S
O269        C278   1.300       .  A
Zr270       O276   2.336   1_564  S
Zr270       O288   2.349   1_554  S
Zr271       O275   2.336   1_554  S
Zr271       O286   2.346   1_564  S
Zr272       O276   2.330   1_554  S
Zr272       O286   2.326   1_554  S
Zr273       O275   2.340   1_554  S
Zr273       O288   2.354   1_554  S
Zr274       O275   2.349       .  S
Zr274       O276   2.328   1_565  S
Zr274       O288   2.352       .  S
Zr274       O286   2.331   1_565  S
C277       C1080   1.503       .  S
C278       C1060   1.507       .  S
C279        C940   1.497       .  S
C280        C893   1.488       .  S
C281        C913   1.506       .  S
C282        C873   1.508       .  S
C283        C953   1.471       .  S
C284        C973   1.444       .  S
H285        O286   0.965       .  S
H287        O288   0.966       .  S
C289        N290   1.349       .  A
C289        N294   1.368       .  A
C289       C1093   1.470       .  S
N290        C291   1.344       .  A
C291        N292   1.351       .  A
C291       C1020   1.460       .  S
N292        C293   1.357       .  A
C293        N294   1.371       .  A
C293        C853   1.473       .  S
C295        N296   1.373       .  A
C295        N300   1.351       .  A
C295        C840   1.485       .  S
N296        C297   1.375       .  A
C297        N298   1.358       .  A
C297       C1120   1.490       .  S
N298        C299   1.357       .  A
C299        N300   1.351       .  A
C299        C993   1.488       .  S
C301        N302   1.348       .  A
C301        N306   1.374       .  A
C301        C813   1.483       .  S
N302        C303   1.346       .  A
C303        N304   1.349       .  A
C303        C980   1.463       .  S
N304        C305   1.356       .  A
C305        N306   1.377       .  A
C305       C1160   1.485       .  S
C307        N308   1.357       .  A
C307        N312   1.369       .  A
C307       C1140   1.481       .  S
N308        C309   1.354       .  A
C309        N310   1.350       .  A
C309        C960   1.475       .  S
N310        C311   1.354       .  A
C311        N312   1.368       .  A
C311        C793   1.475       .  S
O313       Zr349   2.454       .  S
O313        C324   1.295       .  A
O314       Zr348   2.436       .  S
O314        C325   1.292       .  A
O315       Zr321   2.450       .  S
O315        C326   1.295       .  A
O316       Zr321   2.440   1_655  S
O316        C327   1.292       .  A
O317       Zr351   2.423       .  S
O317        C327   1.291       .  A
O318       Zr350   2.427       .  S
O318        C326   1.290       .  A
O319       Zr321   2.472       .  S
O319        C325   1.298       .  A
O320       Zr321   2.472       .  S
O320        C324   1.299       .  A
Zr321       O322   2.357   1_455  S
Zr321       O323   2.333       .  S
Zr321       O331   2.348   1_455  S
Zr321       O329   2.355       .  S
O322       Zr348   2.349   1_655  S
O322       Zr351   2.360       .  S
O323       Zr349   2.325       .  S
O323       Zr350   2.345       .  S
C324       C1860   1.512       .  S
C325       C1513   1.490       .  S
C326        C753   1.474       .  S
C327        C773   1.458       .  S
H328        O329   0.972       .  S
O329       Zr348   2.352       .  S
O329       Zr350   2.358       .  S
H330        O331   0.960       .  S
O331       Zr349   2.328   1_655  S
O331       Zr351   2.350       .  S
O332       Zr348   2.457   1_556  S
O332        C355   1.295       .  A
O333       Zr349   2.433   1_556  S
O333        C356   1.291       .  A
O334       Zr350   2.485       .  S
O334        C357   1.302       .  A
O335       Zr351   2.496       .  S
O335        C358   1.303       .  A
O336       Zr351   2.490       .  S
O336        C359   1.303       .  A
O337       Zr350   2.475       .  S
O337        C360   1.299       .  A
O338       Zr352   2.395       .  S
O338        C361   1.284       .  A
O339       Zr352   2.399   1_655  S
O339        C362   1.286       .  A
O340       Zr350   2.459   1_556  S
O340        C361   1.296       .  A
O341       Zr351   2.443   1_556  S
O341        C362   1.293       .  A
O342       Zr348   2.411       .  S
O342        C357   1.287       .  A
O343       Zr349   2.428       .  S
O343        C360   1.291       .  A
O344       Zr349   2.432   1_655  S
O344        C359   1.291       .  A
O345       Zr348   2.422   1_655  S
O345        C358   1.289       .  A
O346       Zr352   2.467       .  S
O346        C355   1.298       .  A
O347       Zr352   2.454       .  S
O347        C356   1.295       .  A
Zr348       O354   2.342   1_554  S
Zr348       O366   2.330   1_454  S
Zr349       O353   2.343   1_454  S
Zr349       O364   2.343   1_554  S
Zr350       O354   2.344   1_554  S
Zr350       O364   2.346   1_554  S
Zr351       O353   2.346   1_554  S
Zr351       O366   2.338   1_554  S
Zr352       O353   2.340   1_455  S
Zr352       O354   2.338       .  S
Zr352       O366   2.329   1_455  S
Zr352       O364   2.341       .  S
C355       C1593   1.505       .  S
C356       C1553   1.499       .  S
C357        C680   1.499       .  S
C358        C640   1.509       .  S
C359        C653   1.507       .  S
C360        C693   1.492       .  S
C361        C733   1.478       .  S
C362        C713   1.462       .  S
H363        O364   0.962       .  S
H365        O366   0.962       .  S
C367        N368   1.368       .  A
C367        N372   1.353       .  A
C367       C1740   1.473       .  S
N368        C369   1.370       .  A
C369        N370   1.359       .  A
C369        C613   1.488       .  S
N370        C371   1.352       .  A
C371        N372   1.349       .  A
C371        C780   1.478       .  S
C373        N374   1.375       .  A
C373        N378   1.358       .  A
C373        C600   1.495       .  S
N374        C375   1.374       .  A
C375        N376   1.354       .  A
C375       C1720   1.487       .  S
N376        C377   1.351       .  A
C377        N378   1.352       .  A
C377        C760   1.485       .  S
C379        N380   1.351       .  A
C379        N384   1.370       .  A
C379        C573   1.477       .  S
N380        C381   1.348       .  A
C381        N382   1.351       .  A
C381        C740   1.469       .  S
N382        C383   1.358       .  A
C383        N384   1.372       .  A
C383       C1760   1.479       .  S
C385        N386   1.372       .  A
C385        N390   1.355       .  A
C385       C1780   1.482       .  S
N386        C387   1.369       .  A
C387        N388   1.352       .  A
C387        C560   1.474       .  S
N388        C389   1.347       .  A
C389        N390   1.349       .  A
C389        C720   1.471       .  S
C391        N392   1.345       .  A
C391        N396   1.368       .  A
C391        C700   1.467       .  S
N392        C393   1.341       .  A
C393        N394   1.351       .  A
C393        C540   1.465       .  S
N394        C395   1.360       .  A
C395        N396   1.373       .  A
C395        C933   1.485       .  S
O397       Zr433   2.440       .  S
O397        C408   1.292       .  A
O398       Zr432   2.428       .  S
O398        C409   1.290       .  A
O399       Zr405   2.397       .  S
O399        C410   1.285       .  A
O400       Zr405   2.395       .  S
O400        C411   1.285       .  A
O401       Zr435   2.458       .  S
O401        C411   1.296       .  A
O402       Zr434   2.430       .  S
O402        C410   1.290       .  A
O403       Zr405   2.477       .  S
O403        C409   1.299       .  A
O404       Zr405   2.477   1_554  S
O404        C408   1.300       .  A
Zr405       O406   2.342       .  S
Zr405       O407   2.337   1_556  S
Zr405       O415   2.341   1_556  S
Zr405       O413   2.340       .  S
O406       Zr432   2.340       .  S
O406       Zr435   2.342       .  S
O407       Zr433   2.335       .  S
O407       Zr434   2.338   1_554  S
C408        C860   1.508       .  S
C409        C800   1.503       .  S
C410        C533   1.461       .  S
C411        C473   1.473       .  S
H412        O413   0.965       .  S
O413       Zr432   2.344       .  S
O413       Zr434   2.343       .  S
H414        O415   0.964       .  S
O415       Zr433   2.346       .  S
O415       Zr435   2.341   1_554  S
O416       Zr432   2.443       .  S
O416        C439   1.293       .  A
O417       Zr433   2.439       .  S
O417        C440   1.293       .  A
O418       Zr434   2.476       .  S
O418        C441   1.299       .  A
O419       Zr435   2.459       .  S
O419        C442   1.296       .  A
O420       Zr435   2.466   1_554  S
O420        C443   1.298       .  A
O421       Zr434   2.472   1_554  S
O421        C444   1.298       .  A
O422       Zr436   2.425       .  S
O422        C445   1.290       .  A
O423       Zr436   2.426       .  S
O423        C446   1.290       .  A
O424       Zr434   2.412       .  S
O424        C445   1.288       .  A
O425       Zr435   2.431       .  S
O425        C446   1.292       .  A
O426       Zr432   2.432       .  S
O426        C441   1.291       .  A
O427       Zr433   2.440       .  S
O427        C444   1.292       .  A
O428       Zr433   2.432       .  S
O428        C443   1.291       .  A
O429       Zr432   2.443       .  S
O429        C442   1.293       .  A
O430       Zr436   2.472       .  S
O430        C439   1.299       .  A
O431       Zr436   2.497   1_554  S
O431        C440   1.303       .  A
Zr432       O438   2.330       .  S
Zr432       O450   2.333       .  S
Zr433       O437   2.338   1_554  S
Zr433       O448   2.346   1_554  S
Zr434       O438   2.337       .  S
Zr434       O448   2.358       .  S
Zr435       O437   2.353       .  S
Zr435       O450   2.348       .  S
Zr436       O437   2.343       .  S
Zr436       O438   2.340       .  S
Zr436       O450   2.350       .  S
Zr436       O448   2.351       .  S
C439        C820   1.503       .  S
C440        C833   1.512       .  S
C441        C580   1.498       .  S
C442        C553   1.501       .  S
C443        C620   1.497       .  S
C444        C593   1.508       .  S
C445        C493   1.458       .  S
C446        C520   1.466       .  S
H447        O448   0.970   1_554  S
H449        O450   0.964       .  S
C451        N452   1.353   1_554  A
C451        N456   1.372       .  A
C451        C920   1.475       .  S
N452        C453   1.348       .  A
C453        N454   1.350       .  A
C453        C513   1.474       .  S
N454        C455   1.354   1_556  A
C455        N456   1.372       .  A
C455        C633   1.481       .  S
C457        N458   1.351   1_554  A
C457        N462   1.367       .  A
C457        C900   1.470       .  S
N458        C459   1.349       .  A
C459        N460   1.354       .  A
C459        C500   1.485       .  S
N460        C461   1.357       .  A
C461        N462   1.369   1_556  A
C461        C673   1.477   1_556  S
C463        N464   1.356       .  A
C463        N468   1.374       .  A
C463        C660   1.487       .  S
N464        C465   1.352       .  A
C465        N466   1.350       .  A
C465        C480   1.469       .  S
N466        C467   1.353       .  A
C467        N468   1.373       .  A
C467        C880   1.482       .  S
C469        C470   1.403       .  A
C469        C474   1.395       .  A
C469        F487   1.358       .  S
C470        C475   1.466       .  S
C470        C471   1.399       .  A
C471        C472   1.393       .  A
C471        F476   1.359   1_556  S
C472        C473   1.413       .  A
C472        F488   1.359   1_556  S
C473        C474   1.405       .  A
C474        F477   1.358       .  S
C475        C478   1.401       .  A
C475        C482   1.402       .  A
C478        C479   1.392       .  A
C478        F483   1.358   1_556  S
C479        C480   1.406       .  A
C479        F485   1.358   1_556  S
C480        C481   1.408       .  A
C481        C482   1.396       .  A
C481        F484   1.358       .  S
C482        F486   1.358       .  S
C489        C490   1.403       .  A
C489        C494   1.399       .  A
C489        F507   1.358       .  S
C490        C495   1.470       .  S
C490        C491   1.407       .  A
C491        C492   1.386       .  A
C491        F496   1.358       .  S
C492        C493   1.398       .  A
C492        F508   1.359       .  S
C493        C494   1.407       .  A
C494        F497   1.359       .  S
C495        C498   1.401       .  A
C495        C502   1.401       .  A
C498        C499   1.393       .  A
C498        F503   1.358       .  S
C499        C500   1.411       .  A
C499        F505   1.357       .  S
C500        C501   1.416       .  A
C501        C502   1.396       .  A
C501        F504   1.359       .  S
C502        F506   1.359       .  S
C509        C510   1.404       .  A
C509        C514   1.388       .  A
C509        F527   1.358       .  S
C510        C515   1.472       .  S
C510        C511   1.403       .  A
C511        C512   1.398       .  A
C511        F516   1.358       .  S
C512        C513   1.410       .  A
C512        F528   1.358       .  S
C513        C514   1.407       .  A
C514        F517   1.358       .  S
C515        C518   1.408       .  A
C515        C522   1.402       .  A
C518        C519   1.396       .  A
C518        F523   1.358       .  S
C519        C520   1.405       .  A
C519        F525   1.359       .  S
C520        C521   1.406       .  A
C521        C522   1.392       .  A
C521        F524   1.358       .  S
C522        F526   1.358       .  S
C529        C530   1.401       .  A
C529        C534   1.393       .  A
C529        F547   1.358       .  S
C530        C535   1.456       .  S
C530        C531   1.399   1_554  A
C531        C532   1.387       .  A
C531        F536   1.359       .  S
C532        C533   1.408       .  A
C532        F548   1.359       .  S
C533        C534   1.406   1_556  A
C534        F537   1.358       .  S
C535        C538   1.396       .  A
C535        C542   1.402       .  A
C538        C539   1.388       .  A
C538        F543   1.359   1_554  S
C539        C540   1.413       .  A
C539        F545   1.359   1_554  S
C540        C541   1.404       .  A
C541        C542   1.392       .  A
C541        F544   1.358       .  S
C542        F546   1.358       .  S
C549        C550   1.408       .  A
C549        C554   1.402       .  A
C549        F567   1.358       .  S
C550        C555   1.491       .  S
C550        C551   1.403       .  A
C551        C552   1.403       .  A
C551        F556   1.358       .  S
C552        C553   1.417       .  A
C552        F568   1.357       .  S
C553        C554   1.412       .  A
C554        F557   1.358       .  S
C555        C558   1.405       .  A
C555        C562   1.411       .  A
C558        C559   1.397       .  A
C558        F563   1.358       .  S
C559        C560   1.407       .  A
C559        F565   1.358       .  S
C560        C561   1.405       .  A
C561        C562   1.407       .  A
C561        F564   1.358       .  S
C562        F566   1.357       .  S
C569        C570   1.409       .  A
C569        C574   1.407       .  A
C569        F587   1.357       .  S
C570        C575   1.493       .  S
C570        C571   1.406       .  A
C571        C572   1.401       .  A
C571        F576   1.358       .  S
C572        C573   1.408       .  A
C572        F588   1.358       .  S
C573        C574   1.406       .  A
C574        F577   1.357       .  S
C575        C578   1.410       .  A
C575        C582   1.402       .  A
C578        C579   1.410       .  A
C578        F583   1.358       .  S
C579        C580   1.411       .  A
C579        F585   1.358       .  S
C580        C581   1.413       .  A
C581        C582   1.399       .  A
C581        F584   1.356       .  S
C582        F586   1.358       .  S
C589        C590   1.407       .  A
C589        C594   1.410       .  A
C589        F607   1.358       .  S
C590        C595   1.493       .  S
C590        C591   1.402       .  A
C591        C592   1.400       .  A
C591        F596   1.358       .  S
C592        C593   1.418       .  A
C592        F608   1.358       .  S
C593        C594   1.416       .  A
C594        F597   1.357       .  S
C595        C598   1.402       .  A
C595        C602   1.410       .  A
C598        C599   1.397       .  A
C598        F603   1.359       .  S
C599        C600   1.412       .  A
C599        F605   1.358       .  S
C600        C601   1.410       .  A
C601        C602   1.414       .  A
C601        F604   1.357       .  S
C602        F606   1.357       .  S
C609        C610   1.402       .  A
C609        C614   1.394       .  A
C609        F627   1.358       .  S
C610        C615   1.487       .  S
C610        C611   1.409       .  A
C611        C612   1.412       .  A
C611        F616   1.357       .  S
C612        C613   1.410       .  A
C612        F628   1.357       .  S
C613        C614   1.409       .  A
C614        F617   1.358       .  S
C615        C618   1.401       .  A
C615        C622   1.407       .  A
C618        C619   1.397       .  A
C618        F623   1.358       .  S
C619        C620   1.414       .  A
C619        F625   1.358       .  S
C620        C621   1.413       .  A
C621        C622   1.408       .  A
C621        F624   1.358       .  S
C622        F626   1.358       .  S
C629        C630   1.403   1_556  A
C629        C634   1.400       .  A
C629        F647   1.358       .  S
C630        C635   1.491       .  S
C630        C631   1.409       .  A
C631        C632   1.410       .  A
C631        F636   1.357       .  S
C632        C633   1.408       .  A
C632        F648   1.358       .  S
C633        C634   1.407   1_554  A
C634        F637   1.358       .  S
C635        C638   1.400       .  A
C635        C642   1.407       .  A
C638        C639   1.401       .  A
C638        F643   1.358       .  S
C639        C640   1.421       .  A
C639        F645   1.358       .  S
C640        C641   1.413       .  A
C641        C642   1.410       .  A
C641        F644   1.357       .  S
C642        F646   1.358       .  S
C649        C650   1.408       .  A
C649        C654   1.405       .  A
C649        F667   1.357       .  S
C650        C655   1.499       .  S
C650        C651   1.406   1_556  A
C651        C652   1.408       .  A
C651        F656   1.358       .  S
C652        C653   1.420       .  A
C652        F668   1.358       .  S
C653        C654   1.410   1_554  A
C654        F657   1.357       .  S
C655        C658   1.408       .  A
C655        C662   1.409   1_556  A
C658        C659   1.405       .  A
C658        F663   1.358       .  S
C659        C660   1.409       .  A
C659        F665   1.358       .  S
C660        C661   1.406   1_556  A
C661        C662   1.408       .  A
C661        F664   1.357       .  S
C662        F666   1.357       .  S
C669        C670   1.405   1_556  A
C669        C674   1.400       .  A
C669        F687   1.358       .  S
C670        C675   1.485       .  S
C670        C671   1.406       .  A
C671        C672   1.405       .  A
C671        F676   1.358       .  S
C672        C673   1.406       .  A
C672        F688   1.358       .  S
C673        C674   1.406   1_554  A
C674        F677   1.358       .  S
C675        C678   1.406       .  A
C675        C682   1.400       .  A
C678        C679   1.405       .  A
C678        F683   1.357   1_554  S
C679        C680   1.410       .  A
C679        F685   1.357   1_554  S
C680        C681   1.420       .  A
C681        C682   1.399       .  A
C681        F684   1.358       .  S
C682        F686   1.359       .  S
C689        C690   1.410       .  A
C689        C694   1.407       .  A
C689        F707   1.358       .  S
C690        C695   1.490       .  S
C690        C691   1.402   1_554  A
C691        C692   1.400       .  A
C691        F696   1.358       .  S
C692        C693   1.413   1_556  A
C692        F708   1.358       .  S
C693        C694   1.410       .  A
C694        F697   1.358       .  S
C695        C698   1.406       .  A
C695        C702   1.406   1_554  A
C698        C699   1.404       .  A
C698        F703   1.357       .  S
C699        C700   1.406       .  A
C699        F705   1.358       .  S
C700        C701   1.408   1_554  A
C701        C702   1.402       .  A
C701        F704   1.359       .  S
C702        F706   1.358       .  S
C709        C710   1.408       .  A
C709        C714   1.397       .  A
C709        F727   1.358       .  S
C710        C715   1.468       .  S
C710        C711   1.400       .  A
C711        C712   1.387       .  A
C711        F716   1.359       .  S
C712        C713   1.408       .  A
C712        F728   1.359       .  S
C713        C714   1.402       .  A
C714        F717   1.358       .  S
C715        C718   1.401       .  A
C715        C722   1.405       .  A
C718        C719   1.392       .  A
C718        F723   1.358       .  S
C719        C720   1.409       .  A
C719        F725   1.358       .  S
C720        C721   1.408       .  A
C721        C722   1.392       .  A
C721        F724   1.358       .  S
C722        F726   1.359       .  S
C729        C730   1.404       .  A
C729        C734   1.397       .  A
C729        F747   1.358       .  S
C730        C735   1.467       .  S
C730        C731   1.397       .  A
C731        C732   1.391       .  A
C731        F736   1.359       .  S
C732        C733   1.415       .  A
C732        F748   1.358       .  S
C733        C734   1.406       .  A
C734        F737   1.357       .  S
C735        C738   1.400       .  A
C735        C742   1.404       .  A
C738        C739   1.392       .  A
C738        F743   1.358       .  S
C739        C740   1.408       .  A
C739        F745   1.358       .  S
C740        C741   1.407       .  A
C741        C742   1.397       .  A
C741        F744   1.358       .  S
C742        F746   1.358       .  S
C749        C750   1.402       .  A
C749        C754   1.398       .  A
C749        F767   1.358       .  S
C750        C755   1.478       .  S
C750        C751   1.411       .  A
C751        C752   1.397       .  A
C751        F756   1.359       .  S
C752        C753   1.403       .  A
C752        F768   1.358       .  S
C753        C754   1.409       .  A
C754        F757   1.357       .  S
C755        C758   1.404       .  A
C755        C762   1.404       .  A
C758        C759   1.398       .  A
C758        F763   1.358       .  S
C759        C760   1.410       .  A
C759        F765   1.358       .  S
C760        C761   1.411       .  A
C761        C762   1.395       .  A
C761        F764   1.358       .  S
C762        F766   1.358       .  S
C769        C770   1.411       .  A
C769        C774   1.398       .  A
C769        F787   1.359       .  S
C770        C775   1.468       .  S
C770        C771   1.400       .  A
C771        C772   1.391       .  A
C771        F776   1.358       .  S
C772        C773   1.405       .  A
C772        F788   1.358       .  S
C773        C774   1.399       .  A
C774        F777   1.358       .  S
C775        C778   1.403       .  A
C775        C782   1.401       .  A
C778        C779   1.390       .  A
C778        F783   1.359       .  S
C779        C780   1.408       .  A
C779        F785   1.357       .  S
C780        C781   1.412       .  A
C781        C782   1.398       .  A
C781        F784   1.358       .  S
C782        F786   1.358       .  S
C789        C790   1.408       .  A
C789        C794   1.406       .  A
C789        F807   1.358       .  S
C790        C795   1.486       .  S
C790        C791   1.403       .  A
C791        C792   1.399       .  A
C791        F796   1.357       .  S
C792        C793   1.406       .  A
C792        F808   1.358       .  S
C793        C794   1.406       .  A
C794        F797   1.358       .  S
C795        C798   1.398       .  A
C795        C802   1.407       .  A
C798        C799   1.400       .  A
C798        F803   1.358       .  S
C799        C800   1.419       .  A
C799        F805   1.356       .  S
C800        C801   1.412       .  A
C801        C802   1.406       .  A
C801        F804   1.357       .  S
C802        F806   1.358       .  S
C809        C810   1.410       .  A
C809        C814   1.411       .  A
C809        F827   1.357       .  S
C810        C815   1.501       .  S
C810        C811   1.408       .  A
C811        C812   1.403       .  A
C811        F816   1.358       .  S
C812        C813   1.408       .  A
C812        F828   1.358       .  S
C813        C814   1.408       .  A
C814        F817   1.357       .  S
C815        C818   1.407       .  A
C815        C822   1.409       .  A
C818        C819   1.409       .  A
C818        F823   1.358       .  S
C819        C820   1.416       .  A
C819        F825   1.358       .  S
C820        C821   1.410       .  A
C821        C822   1.404       .  A
C821        F824   1.358       .  S
C822        F826   1.358       .  S
C829        C830   1.413       .  A
C829        C834   1.417       .  A
C829        F847   1.358       .  S
C830        C835   1.507       .  S
C830        C831   1.404       .  A
C831        C832   1.403       .  A
C831        F836   1.358       .  S
C832        C833   1.416       .  A
C832        F848   1.358       .  S
C833        C834   1.414       .  A
C834        F837   1.357       .  S
C835        C838   1.410       .  A
C835        C842   1.412       .  A
C838        C839   1.403       .  A
C838        F843   1.358       .  S
C839        C840   1.406       .  A
C839        F845   1.358       .  S
C840        C841   1.409       .  A
C841        C842   1.413       .  A
C841        F844   1.358       .  S
C842        F846   1.357       .  S
C849        C850   1.407       .  A
C849        C854   1.405       .  A
C849        F867   1.357       .  S
C850        C855   1.485       .  S
C850        C851   1.404       .  A
C851        C852   1.401       .  A
C851        F856   1.357       .  S
C852        C853   1.405       .  A
C852        F868   1.358       .  S
C853        C854   1.406       .  A
C854        F857   1.358       .  S
C855        C858   1.400       .  A
C855        C862   1.404       .  A
C858        C859   1.404       .  A
C858        F863   1.358       .  S
C859        C860   1.420       .  A
C859        F865   1.357       .  S
C860        C861   1.415       .  A
C861        C862   1.405       .  A
C861        F864   1.357       .  S
C862        F866   1.358       .  S
C869        C870   1.408       .  A
C869        C874   1.408       .  A
C869        F887   1.358       .  S
C870        C875   1.494       .  S
C870        C871   1.401       .  A
C871        C872   1.404       .  A
C871        F876   1.357       .  S
C872        C873   1.418       .  A
C872        F888   1.357       .  S
C873        C874   1.415       .  A
C874        F877   1.358       .  S
C875        C878   1.404       .  A
C875        C882   1.410   1_554  A
C878        C879   1.402       .  A
C878        F883   1.357       .  S
C879        C880   1.407   1_554  A
C879        F885   1.358       .  S
C880        C881   1.408       .  A
C881        C882   1.410       .  A
C881        F884   1.358       .  S
C882        F886   1.358       .  S
C889        C890   1.405       .  A
C889        C894   1.399       .  A
C889        F907   1.358       .  S
C890        C895   1.491       .  S
C890        C891   1.409       .  A
C891        C892   1.404       .  A
C891        F896   1.358       .  S
C892        C893   1.409       .  A
C892        F908   1.358   1_554  S
C893        C894   1.410       .  A
C894        F897   1.358       .  S
C895        C898   1.409       .  A
C895        C902   1.407       .  A
C898        C899   1.401       .  A
C898        F903   1.358       .  S
C899        C900   1.403       .  A
C899        F905   1.358       .  S
C900        C901   1.407       .  A
C901        C902   1.402       .  A
C901        F904   1.358       .  S
C902        F906   1.358       .  S
C909        C910   1.410       .  A
C909        C914   1.410       .  A
C909        F927   1.358       .  S
C910        C915   1.495       .  S
C910        C911   1.401       .  A
C911        C912   1.398       .  A
C911        F916   1.358       .  S
C912        C913   1.418       .  A
C912        F928   1.357       .  S
C913        C914   1.414       .  A
C914        F917   1.358       .  S
C915        C918   1.409       .  A
C915        C922   1.408       .  A
C918        C919   1.401   1_554  A
C918        F923   1.358   1_554  S
C919        C920   1.405   1_556  A
C919        F925   1.358       .  S
C920        C921   1.407       .  A
C921        C922   1.407       .  A
C921        F924   1.358       .  S
C922        F926   1.357       .  S
C929        C930   1.407       .  A
C929        C934   1.397       .  A
C929        F947   1.359       .  S
C930        C935   1.492       .  S
C930        C931   1.410       .  A
C931        C932   1.405       .  A
C931        F936   1.357   1_554  S
C932        C933   1.406       .  A
C932        F948   1.357   1_554  S
C933        C934   1.410       .  A
C934        F937   1.359       .  S
C935        C938   1.406       .  A
C935        C942   1.407       .  A
C938        C939   1.402       .  A
C938        F943   1.358       .  S
C939        C940   1.415       .  A
C939        F945   1.358       .  S
C940        C941   1.412       .  A
C941        C942   1.399       .  A
C941        F944   1.358       .  S
C942        F946   1.358       .  S
C949        C950   1.399       .  A
C949        C954   1.392       .  A
C949        F967   1.358       .  S
C950        C955   1.466       .  S
C950        C951   1.403       .  A
C951        C952   1.398       .  A
C951        F956   1.358       .  S
C952        C953   1.408       .  A
C952        F968   1.358       .  S
C953        C954   1.408       .  A
C954        F957   1.358       .  S
C955        C958   1.401       .  A
C955        C962   1.401       .  A
C958        C959   1.395       .  A
C958        F963   1.358       .  S
C959        C960   1.407       .  A
C959        F965   1.358       .  S
C960        C961   1.411       .  A
C961        C962   1.396       .  A
C961        F964   1.358       .  S
C962        F966   1.358       .  S
C969        C970   1.397       .  A
C969        C974   1.388       .  A
C969        F987   1.358       .  S
C970        C975   1.452       .  S
C970        C971   1.403       .  A
C971        C972   1.392       .  A
C971        F976   1.358       .  S
C972        C973   1.399       .  A
C972        F988   1.358       .  S
C973        C974   1.404       .  A
C974        F977   1.359       .  S
C975        C978   1.396       .  A
C975        C982   1.400       .  A
C978        C979   1.389       .  A
C978        F983   1.358       .  S
C979        C980   1.409       .  A
C979        F985   1.358       .  S
C980        C981   1.407       .  A
C981        C982   1.392       .  A
C981        F984   1.358       .  S
C982        F986   1.359       .  S
C989        C990   1.412       .  A
C989        C994   1.397       .  A
C989       F1007   1.357       .  S
C990        C995   1.484       .  S
C990        C991   1.409       .  A
C991        C992   1.399       .  A
C991        F996   1.358       .  S
C992        C993   1.409       .  A
C992       F1008   1.359       .  S
C993        C994   1.404       .  A
C994        F997   1.358       .  S
C995        C998   1.413       .  A
C995       C1002   1.402       .  A
C998        C999   1.401       .  A
C998       F1003   1.358       .  S
C999       C1000   1.404       .  A
C999       F1005   1.358       .  S
C1000      C1001   1.408       .  A
C1001      C1002   1.395       .  A
C1001      F1004   1.354       .  S
C1002      F1006   1.358       .  S
C1009      C1010   1.404       .  A
C1009      C1014   1.396       .  A
C1009      F1027   1.357       .  S
C1010      C1015   1.458       .  S
C1010      C1011   1.398       .  A
C1011      C1012   1.388       .  A
C1011      F1016   1.359       .  S
C1012      C1013   1.407       .  A
C1012      F1028   1.359       .  S
C1013      C1014   1.401       .  A
C1014      F1017   1.358       .  S
C1015      C1018   1.399       .  A
C1015      C1022   1.401       .  A
C1018      C1019   1.391       .  A
C1018      F1023   1.358       .  S
C1019      C1020   1.406       .  A
C1019      F1025   1.358       .  S
C1020      C1021   1.404       .  A
C1021      C1022   1.394       .  A
C1021      F1024   1.358       .  S
C1022      F1026   1.358       .  S
C1029      C1030   1.411       .  A
C1029      C1034   1.406       .  A
C1029      F1047   1.357       .  S
C1030      C1035   1.497       .  S
C1030      C1031   1.410   1_565  A
C1031      C1032   1.398       .  A
C1031      F1036   1.358       .  S
C1032      C1033   1.406   1_545  A
C1032      F1048   1.359       .  S
C1033      C1034   1.405       .  A
C1034      F1037   1.358       .  S
C1035      C1038   1.404       .  A
C1035      C1042   1.410       .  A
C1038      C1039   1.397       .  A
C1038      F1043   1.358       .  S
C1039      C1040   1.417       .  A
C1039      F1045   1.358       .  S
C1040      C1041   1.414       .  A
C1041      C1042   1.408       .  A
C1041      F1044   1.358       .  S
C1042      F1046   1.358       .  S
C1049      C1050   1.411       .  A
C1049      C1054   1.410       .  A
C1049      F1067   1.357       .  S
C1050      C1055   1.498       .  S
C1050      C1051   1.406       .  A
C1051      C1052   1.400       .  A
C1051      F1056   1.358       .  S
C1052      C1053   1.409       .  A
C1052      F1068   1.359       .  S
C1053      C1054   1.406       .  A
C1054      F1057   1.357       .  S
C1055      C1058   1.408       .  A
C1055      C1062   1.405       .  A
C1058      C1059   1.405       .  A
C1058      F1063   1.358       .  S
C1059      C1060   1.412       .  A
C1059      F1065   1.358       .  S
C1060      C1061   1.418       .  A
C1061      C1062   1.409       .  A
C1061      F1064   1.357       .  S
C1062      F1066   1.358       .  S
C1069      C1070   1.411       .  A
C1069      C1074   1.408       .  A
C1069      F1087   1.357   1_565  S
C1070      C1075   1.493       .  S
C1070      C1071   1.406       .  A
C1071      C1072   1.396       .  A
C1071      F1076   1.358       .  S
C1072      C1073   1.406       .  A
C1072      F1088   1.358       .  S
C1073      C1074   1.406       .  A
C1074      F1077   1.358   1_565  S
C1075      C1078   1.404       .  A
C1075      C1082   1.407       .  A
C1078      C1079   1.405       .  A
C1078      F1083   1.358       .  S
C1079      C1080   1.419       .  A
C1079      F1085   1.358       .  S
C1080      C1081   1.412       .  A
C1081      C1082   1.400       .  A
C1081      F1084   1.357       .  S
C1082      F1086   1.358       .  S
C1089      C1090   1.404       .  A
C1089      C1094   1.400       .  A
C1089      F1107   1.358       .  S
C1090      C1095   1.486       .  S
C1090      C1091   1.407       .  A
C1091      C1092   1.404       .  A
C1091      F1096   1.357       .  S
C1092      C1093   1.406       .  A
C1092      F1108   1.358       .  S
C1093      C1094   1.407       .  A
C1094      F1097   1.359       .  S
C1095      C1098   1.399       .  A
C1095      C1102   1.407       .  A
C1098      C1099   1.401       .  A
C1098      F1103   1.358       .  S
C1099      C1100   1.419       .  A
C1099      F1105   1.358       .  S
C1100      C1101   1.413       .  A
C1101      C1102   1.406       .  A
C1101      F1104   1.357       .  S
C1102      F1106   1.358       .  S
C1109      C1110   1.410       .  A
C1109      C1114   1.405       .  A
C1109      F1127   1.358       .  S
C1110      C1115   1.501       .  S
C1110      C1111   1.410       .  A
C1111      C1112   1.409       .  A
C1111      F1116   1.357       .  S
C1112      C1113   1.407       .  A
C1112      F1128   1.358       .  S
C1113      C1114   1.405       .  A
C1114      F1117   1.358       .  S
C1115      C1118   1.410       .  A
C1115      C1122   1.409       .  A
C1118      C1119   1.411       .  A
C1118      F1123   1.357       .  S
C1119      C1120   1.409       .  A
C1119      F1125   1.357       .  S
C1120      C1121   1.408       .  A
C1121      C1122   1.404       .  A
C1121      F1124   1.358       .  S
C1122      F1126   1.358       .  S
C1129      C1130   1.406       .  A
C1129      C1134   1.405       .  A
C1129      F1147   1.358       .  S
C1130      C1135   1.495       .  S
C1130      C1131   1.407       .  A
C1131      C1132   1.402       .  A
C1131      F1136   1.358       .  S
C1132      C1133   1.412       .  A
C1132      F1148   1.357       .  S
C1133      C1134   1.417       .  A
C1134      F1137   1.358       .  S
C1135      C1138   1.410       .  A
C1135      C1142   1.408       .  A
C1138      C1139   1.406       .  A
C1138      F1143   1.357       .  S
C1139      C1140   1.405       .  A
C1139      F1145   1.358       .  S
C1140      C1141   1.407       .  A
C1141      C1142   1.402       .  A
C1141      F1144   1.358       .  S
C1142      F1146   1.358       .  S
C1149      C1150   1.405       .  A
C1149      C1154   1.410       .  A
C1149      F1167   1.357       .  S
C1150      C1155   1.494       .  S
C1150      C1151   1.405       .  A
C1151      C1152   1.404       .  A
C1151      F1156   1.358       .  S
C1152      C1153   1.414       .  A
C1152      F1168   1.358       .  S
C1153      C1154   1.414       .  A
C1154      F1157   1.357       .  S
C1155      C1158   1.409       .  A
C1155      C1162   1.405       .  A
C1158      C1159   1.409       .  A
C1158      F1163   1.357       .  S
C1159      C1160   1.406       .  A
C1159      F1165   1.357       .  S
C1160      C1161   1.410       .  A
C1161      C1162   1.402       .  A
C1161      F1164   1.359       .  S
C1162      F1166   1.358       .  S
C1169      C1170   1.408       .  A
C1169      C1174   1.394       .  A
C1169      F1187   1.359       .  S
C1170      C1175   1.470       .  S
C1170      C1171   1.401       .  A
C1171      C1172   1.399       .  A
C1171      F1176   1.357       .  S
C1172      C1173   1.408       .  A
C1172      F1188   1.358       .  S
C1173      C1174   1.399       .  A
C1174      F1177   1.358   1_545  S
C1175      C1178   1.404       .  A
C1175      C1182   1.400       .  A
C1178      C1179   1.397       .  A
C1178      F1183   1.358       .  S
C1179      C1180   1.410       .  A
C1179      F1185   1.358       .  S
C1180      C1181   1.412       .  A
C1181      C1182   1.394       .  A
C1181      F1184   1.358       .  S
C1182      F1186   1.358       .  S
C1189      C1190   1.405       .  A
C1189      C1194   1.399       .  A
C1189      F1207   1.358       .  S
C1190      C1195   1.474       .  S
C1190      C1191   1.399       .  A
C1191      C1192   1.390       .  A
C1191      F1196   1.359       .  S
C1192      C1193   1.416       .  A
C1192      F1208   1.358       .  S
C1193      C1194   1.411       .  A
C1194      F1197   1.358       .  S
C1195      C1198   1.404       .  A
C1195      C1202   1.405   1_545  A
C1198      C1199   1.398       .  A
C1198      F1203   1.358       .  S
C1199      C1200   1.407   1_545  A
C1199      F1205   1.358       .  S
C1200      C1201   1.405       .  A
C1201      C1202   1.393       .  A
C1201      F1204   1.358       .  S
C1202      F1206   1.358       .  S
C1209      C1210   1.401       .  A
C1209      C1214   1.397       .  A
C1209      F1227   1.358       .  S
C1210      C1215   1.475       .  S
C1210      C1211   1.405       .  A
C1211      C1212   1.395       .  A
C1211      F1216   1.358       .  S
C1212      C1213   1.408       .  A
C1212      F1228   1.358       .  S
C1213      C1214   1.413       .  A
C1214      F1217   1.358       .  S
C1215      C1218   1.407       .  A
C1215      C1222   1.402       .  A
C1218      C1219   1.399   1_565  A
C1218      F1223   1.357   1_565  S
C1219      C1220   1.404   1_545  A
C1219      F1225   1.358       .  S
C1220      C1221   1.410       .  A
C1221      C1222   1.392       .  A
C1221      F1224   1.359       .  S
C1222      F1226   1.359       .  S
C1229      C1230   1.409       .  A
C1229      C1234   1.404       .  A
C1229      F1247   1.358       .  S
C1230      C1235   1.481       .  S
C1230      C1231   1.400       .  A
C1231      C1232   1.395       .  A
C1231      F1236   1.358       .  S
C1232      C1233   1.407       .  A
C1232      F1248   1.354       .  S
C1233      C1234   1.406       .  A
C1234      F1237   1.358       .  S
C1235      C1238   1.403       .  A
C1235      C1242   1.406       .  A
C1238      C1239   1.401       .  A
C1238      F1243   1.358       .  S
C1239      C1240   1.408       .  A
C1239      F1245   1.358       .  S
C1240      C1241   1.403       .  A
C1241      C1242   1.400       .  A
C1241      F1244   1.358       .  S
C1242      F1246   1.358       .  S
C1249      C1250   1.402       .  A
C1249      C1254   1.391       .  A
C1249      F1267   1.358       .  S
C1250      C1255   1.478       .  S
C1250      C1251   1.410       .  A
C1251      C1252   1.398       .  A
C1251      F1256   1.358       .  S
C1252      C1253   1.405       .  A
C1252      F1268   1.358       .  S
C1253      C1254   1.409       .  A
C1254      F1257   1.358       .  S
C1255      C1258   1.407       .  A
C1255      C1262   1.405       .  A
C1258      C1259   1.386       .  A
C1258      F1263   1.358       .  S
C1259      C1260   1.405       .  A
C1259      F1265   1.359       .  S
C1260      C1261   1.409       .  A
C1261      C1262   1.398       .  A
C1261      F1264   1.358       .  S
C1262      F1266   1.358       .  S
C1269      C1270   1.406       .  A
C1269      C1274   1.404       .  A
C1269      F1287   1.357       .  S
C1270      C1275   1.501       .  S
C1270      C1271   1.411       .  A
C1271      C1272   1.409       .  A
C1271      F1276   1.358       .  S
C1272      C1273   1.412       .  A
C1272      F1288   1.358       .  S
C1273      C1274   1.412       .  A
C1274      F1277   1.358       .  S
C1275      C1278   1.410       .  A
C1275      C1282   1.408       .  A
C1278      C1279   1.407       .  A
C1278      F1283   1.358       .  S
C1279      C1280   1.407       .  A
C1279      F1285   1.358       .  S
C1280      C1281   1.408       .  A
C1281      C1282   1.407       .  A
C1281      F1284   1.358       .  S
C1282      F1286   1.358       .  S
C1289      C1290   1.408       .  A
C1289      C1294   1.408       .  A
C1289      F1307   1.358       .  S
C1290      C1295   1.487       .  S
C1290      C1291   1.400       .  A
C1291      C1292   1.400       .  A
C1291      F1296   1.357       .  S
C1292      C1293   1.414       .  A
C1292      F1308   1.358       .  S
C1293      C1294   1.412       .  A
C1294      F1297   1.358       .  S
C1295      C1298   1.404       .  A
C1295      C1302   1.406       .  A
C1298      C1299   1.401       .  A
C1298      F1303   1.358       .  S
C1299      C1300   1.408       .  A
C1299      F1305   1.358       .  S
C1300      C1301   1.408       .  A
C1301      C1302   1.408       .  A
C1301      F1304   1.357       .  S
C1302      F1306   1.357       .  S
C1309      C1310   1.408       .  A
C1309      C1314   1.403       .  A
C1309      F1327   1.358       .  S
C1310      C1315   1.485       .  S
C1310      C1311   1.405       .  A
C1311      C1312   1.399       .  A
C1311      F1316   1.358       .  S
C1312      C1313   1.404       .  A
C1312      F1328   1.358       .  S
C1313      C1314   1.404       .  A
C1314      F1317   1.358       .  S
C1315      C1318   1.409       .  A
C1315      C1322   1.403       .  A
C1318      C1319   1.401       .  A
C1318      F1323   1.358       .  S
C1319      C1320   1.407       .  A
C1319      F1325   1.358       .  S
C1320      C1321   1.412       .  A
C1321      C1322   1.400       .  A
C1321      F1324   1.358       .  S
C1322      F1326   1.358       .  S
C1329      C1330   1.410       .  A
C1329      C1334   1.400       .  A
C1329      F1347   1.358       .  S
C1330      C1335   1.495       .  S
C1330      C1331   1.409       .  A
C1331      C1332   1.403       .  A
C1331      F1336   1.357       .  S
C1332      C1333   1.405       .  A
C1332      F1348   1.358       .  S
C1333      C1334   1.403       .  A
C1334      F1337   1.358       .  S
C1335      C1338   1.410       .  A
C1335      C1342   1.403       .  A
C1338      C1339   1.406       .  A
C1338      F1343   1.358       .  S
C1339      C1340   1.413       .  A
C1339      F1345   1.358       .  S
C1340      C1341   1.416       .  A
C1341      C1342   1.398       .  A
C1341      F1344   1.358       .  S
C1342      F1346   1.358       .  S
C1349      C1350   1.399       .  A
C1349      C1354   1.401       .  A
C1349      F1367   1.358       .  S
C1350      C1355   1.488       .  S
C1350      C1351   1.407       .  A
C1351      C1352   1.406       .  A
C1351      F1356   1.358       .  S
C1352      C1353   1.413       .  A
C1352      F1368   1.358       .  S
C1353      C1354   1.420       .  A
C1354      F1357   1.358       .  S
C1355      C1358   1.402   1_565  A
C1355      C1362   1.409       .  A
C1358      C1359   1.398       .  A
C1358      F1363   1.358       .  S
C1359      C1360   1.409   1_545  A
C1359      F1365   1.358       .  S
C1360      C1361   1.407       .  A
C1361      C1362   1.409       .  A
C1361      F1364   1.357       .  S
C1362      F1366   1.357       .  S
C1369      C1370   1.403       .  A
C1369      C1374   1.400       .  A
C1369      F1387   1.358       .  S
C1370      C1375   1.480       .  S
C1370      C1371   1.405       .  A
C1371      C1372   1.403       .  A
C1371      F1376   1.357   1_565  S
C1372      C1373   1.405       .  A
C1372      F1388   1.358   1_565  S
C1373      C1374   1.406       .  A
C1374      F1377   1.358       .  S
C1375      C1378   1.398       .  A
C1375      C1382   1.405       .  A
C1378      C1379   1.400       .  A
C1378      F1383   1.358       .  S
C1379      C1380   1.418       .  A
C1379      F1385   1.358       .  S
C1380      C1381   1.413       .  A
C1381      C1382   1.404       .  A
C1381      F1384   1.358       .  S
C1382      F1386   1.358       .  S
C1389      C1390   1.402   1_545  A
C1389      C1394   1.394       .  A
C1389      F1407   1.358       .  S
C1390      C1395   1.484       .  S
C1390      C1391   1.409       .  A
C1391      C1392   1.409       .  A
C1391      F1396   1.357       .  S
C1392      C1393   1.408       .  A
C1392      F1408   1.358       .  S
C1393      C1394   1.405   1_565  A
C1394      F1397   1.358       .  S
C1395      C1398   1.399       .  A
C1395      C1402   1.406       .  A
C1398      C1399   1.397       .  A
C1398      F1403   1.358       .  S
C1399      C1400   1.418       .  A
C1399      F1405   1.357       .  S
C1400      C1401   1.416       .  A
C1401      C1402   1.409       .  A
C1401      F1404   1.357       .  S
C1402      F1406   1.358       .  S
C1409      C1410   1.407       .  A
C1409      C1414   1.407       .  A
C1409      F1427   1.358       .  S
C1410      C1415   1.493       .  S
C1410      C1411   1.403       .  A
C1411      C1412   1.403       .  A
C1411      F1416   1.358       .  S
C1412      C1413   1.418       .  A
C1412      F1428   1.358       .  S
C1413      C1414   1.413       .  A
C1414      F1417   1.357       .  S
C1415      C1418   1.406       .  A
C1415      C1422   1.409       .  A
C1418      C1419   1.400       .  A
C1418      F1423   1.357       .  S
C1419      C1420   1.404       .  A
C1419      F1425   1.358       .  S
C1420      C1421   1.408       .  A
C1421      C1422   1.408       .  A
C1421      F1424   1.358       .  S
C1422      F1426   1.358       .  S
C1429      C1430   1.403       .  A
C1429      C1434   1.392       .  A
C1429      F1447   1.359       .  S
C1430      C1435   1.477       .  S
C1430      C1431   1.410       .  A
C1431      C1432   1.395       .  A
C1431      F1436   1.357       .  S
C1432      C1433   1.404       .  A
C1432      F1448   1.358       .  S
C1433      C1434   1.409       .  A
C1434      F1437   1.358       .  S
C1435      C1438   1.404       .  A
C1435      C1442   1.408       .  A
C1438      C1439   1.397       .  A
C1438      F1443   1.358       .  S
C1439      C1440   1.409       .  A
C1439      F1445   1.358       .  S
C1440      C1441   1.407       .  A
C1441      C1442   1.389       .  A
C1441      F1444   1.358       .  S
C1442      F1446   1.359       .  S
C1449      C1450   1.403       .  A
C1449      C1454   1.394       .  A
C1449      F1467   1.358       .  S
C1450      C1455   1.475       .  S
C1450      C1451   1.409       .  A
C1451      C1452   1.395       .  A
C1451      F1456   1.358       .  S
C1452      C1453   1.401       .  A
C1452      F1468   1.358       .  S
C1453      C1454   1.407       .  A
C1454      F1457   1.357       .  S
C1455      C1458   1.405       .  A
C1455      C1462   1.403       .  A
C1458      C1459   1.393       .  A
C1458      F1463   1.359       .  S
C1459      C1460   1.410       .  A
C1459      F1465   1.358       .  S
C1460      C1461   1.408       .  A
C1461      C1462   1.397       .  A
C1461      F1464   1.358       .  S
C1462      F1466   1.358       .  S
C1469      C1470   1.403       .  A
C1469      C1474   1.400       .  A
C1469      F1487   1.358       .  S
C1470      C1475   1.481       .  S
C1470      C1471   1.404       .  A
C1471      C1472   1.400       .  A
C1471      F1476   1.358       .  S
C1472      C1473   1.410       .  A
C1472      F1488   1.358       .  S
C1473      C1474   1.414       .  A
C1474      F1477   1.358       .  S
C1475      C1478   1.406       .  A
C1475      C1482   1.404       .  A
C1478      C1479   1.401       .  A
C1478      F1483   1.357       .  S
C1479      C1480   1.405       .  A
C1479      F1485   1.357       .  S
C1480      C1481   1.409       .  A
C1481      C1482   1.400       .  A
C1481      F1484   1.358       .  S
C1482      F1486   1.358       .  S
C1489      C1490   1.404       .  A
C1489      C1494   1.389       .  A
C1489      F1507   1.358       .  S
C1490      C1495   1.468       .  S
C1490      C1491   1.401       .  A
C1491      C1492   1.395       .  A
C1491      F1496   1.359       .  S
C1492      C1493   1.413       .  A
C1492      F1508   1.359       .  S
C1493      C1494   1.404       .  A
C1494      F1497   1.357       .  S
C1495      C1498   1.406       .  A
C1495      C1502   1.403       .  A
C1498      C1499   1.393       .  A
C1498      F1503   1.358       .  S
C1499      C1500   1.404       .  A
C1499      F1505   1.358       .  S
C1500      C1501   1.406       .  A
C1501      C1502   1.389       .  A
C1501      F1504   1.359       .  S
C1502      F1506   1.359       .  S
C1509      C1510   1.406       .  A
C1509      C1514   1.401       .  A
C1509      F1527   1.358       .  S
C1510      C1515   1.498       .  S
C1510      C1511   1.412       .  A
C1511      C1512   1.409       .  A
C1511      F1516   1.357   1_455  S
C1512      C1513   1.406       .  A
C1512      F1528   1.358   1_455  S
C1513      C1514   1.409       .  A
C1514      F1517   1.356       .  S
C1515      C1518   1.409       .  A
C1515      C1522   1.408       .  A
C1518      C1519   1.404       .  A
C1518      F1523   1.358       .  S
C1519      C1520   1.407       .  A
C1519      F1525   1.358   1_455  S
C1520      C1521   1.409       .  A
C1521      C1522   1.409       .  A
C1521      F1524   1.357       .  S
C1522      F1526   1.358       .  S
C1529      C1530   1.408   1_655  A
C1529      C1534   1.404       .  A
C1529      F1547   1.358       .  S
C1530      C1535   1.504       .  S
C1530      C1531   1.411       .  A
C1531      C1532   1.414       .  A
C1531      F1536   1.357       .  S
C1532      C1533   1.409       .  A
C1532      F1548   1.357       .  S
C1533      C1534   1.408   1_455  A
C1534      F1537   1.358       .  S
C1535      C1538   1.411       .  A
C1535      C1542   1.404       .  A
C1538      C1539   1.415       .  A
C1538      F1543   1.358   1_455  S
C1539      C1540   1.414       .  A
C1539      F1545   1.357   1_455  S
C1540      C1541   1.416       .  A
C1541      C1542   1.404       .  A
C1541      F1544   1.357       .  S
C1542      F1546   1.358       .  S
C1549      C1550   1.408       .  A
C1549      C1554   1.403       .  A
C1549      F1567   1.358       .  S
C1550      C1555   1.488       .  S
C1550      C1551   1.401       .  A
C1551      C1552   1.399       .  A
C1551      F1556   1.358       .  S
C1552      C1553   1.417       .  A
C1552      F1568   1.358       .  S
C1553      C1554   1.413       .  A
C1554      F1557   1.357       .  S
C1555      C1558   1.405       .  A
C1555      C1562   1.410   1_455  A
C1558      C1559   1.398       .  A
C1558      F1563   1.358       .  S
C1559      C1560   1.407       .  A
C1559      F1565   1.358       .  S
C1560      C1561   1.403   1_455  A
C1561      C1562   1.404       .  A
C1561      F1564   1.358       .  S
C1562      F1566   1.358       .  S
C1569      C1570   1.411   1_455  A
C1569      C1574   1.407       .  A
C1569      F1587   1.357       .  S
C1570      C1575   1.494       .  S
C1570      C1571   1.407       .  A
C1571      C1572   1.397       .  A
C1571      F1576   1.358       .  S
C1572      C1573   1.406       .  A
C1572      F1588   1.359       .  S
C1573      C1574   1.405   1_655  A
C1574      F1577   1.357       .  S
C1575      C1578   1.405   1_655  A
C1575      C1582   1.408       .  A
C1578      C1579   1.403       .  A
C1578      F1583   1.358       .  S
C1579      C1580   1.417       .  A
C1579      F1585   1.358       .  S
C1580      C1581   1.412       .  A
C1581      C1582   1.401   1_455  A
C1581      F1584   1.357   1_455  S
C1582      F1586   1.358       .  S
C1589      C1590   1.405       .  A
C1589      C1594   1.410       .  A
C1589      F1607   1.358       .  S
C1590      C1595   1.494       .  S
C1590      C1591   1.405   1_655  A
C1591      C1592   1.403       .  A
C1591      F1596   1.358       .  S
C1592      C1593   1.412       .  A
C1592      F1608   1.357       .  S
C1593      C1594   1.417   1_455  A
C1594      F1597   1.358       .  S
C1595      C1598   1.409   1_655  A
C1595      C1602   1.404       .  A
C1598      C1599   1.410       .  A
C1598      F1603   1.357       .  S
C1599      C1600   1.409   1_455  A
C1599      F1605   1.357       .  S
C1600      C1601   1.413       .  A
C1601      C1602   1.400       .  A
C1601      F1604   1.359       .  S
C1602      F1606   1.358       .  S
C1609      C1610   1.405   1_655  A
C1609      C1614   1.401       .  A
C1609      F1627   1.357       .  S
C1610      C1615   1.491       .  S
C1610      C1611   1.407       .  A
C1611      C1612   1.407       .  A
C1611      F1616   1.358       .  S
C1612      C1613   1.410       .  A
C1612      F1628   1.358       .  S
C1613      C1614   1.406   1_455  A
C1614      F1617   1.358       .  S
C1615      C1618   1.400       .  A
C1615      C1622   1.408       .  A
C1618      C1619   1.401       .  A
C1618      F1623   1.358       .  S
C1619      C1620   1.419       .  A
C1619      F1625   1.357   1_455  S
C1620      C1621   1.414       .  A
C1621      C1622   1.409       .  A
C1621      F1624   1.357       .  S
C1622      F1626   1.358       .  S
C1629      C1630   1.410       .  A
C1629      C1634   1.414       .  A
C1629      F1647   1.358       .  S
C1630      C1635   1.498       .  S
C1630      C1631   1.402       .  A
C1631      C1632   1.398       .  A
C1631      F1636   1.358       .  S
C1632      C1633   1.419       .  A
C1632      F1648   1.358       .  S
C1633      C1634   1.416       .  A
C1634      F1637   1.357       .  S
C1635      C1638   1.405       .  A
C1635      C1642   1.411       .  A
C1638      C1639   1.398       .  A
C1638      F1643   1.358       .  S
C1639      C1640   1.408       .  A
C1639      F1645   1.358       .  S
C1640      C1641   1.409       .  A
C1641      C1642   1.414       .  A
C1641      F1644   1.357       .  S
C1642      F1646   1.357       .  S
C1649      C1650   1.398       .  A
C1649      C1654   1.402       .  A
C1649      F1667   1.358       .  S
C1650      C1655   1.482       .  S
C1650      C1651   1.404       .  A
C1651      C1652   1.403       .  A
C1651      F1656   1.358       .  S
C1652      C1653   1.412       .  A
C1652      F1668   1.357       .  S
C1653      C1654   1.422       .  A
C1654      F1657   1.358       .  S
C1655      C1658   1.407       .  A
C1655      C1662   1.403       .  A
C1658      C1659   1.405       .  A
C1658      F1663   1.357       .  S
C1659      C1660   1.406       .  A
C1659      F1665   1.358       .  S
C1660      C1661   1.406       .  A
C1661      C1662   1.399       .  A
C1661      F1664   1.358       .  S
C1662      F1666   1.358       .  S
C1669      C1670   1.403       .  A
C1669      C1674   1.402       .  A
C1669      F1687   1.357       .  S
C1670      C1675   1.488       .  S
C1670      C1671   1.403       .  A
C1671      C1672   1.406       .  A
C1671      F1676   1.358       .  S
C1672      C1673   1.420       .  A
C1672      F1688   1.358       .  S
C1673      C1674   1.413       .  A
C1674      F1677   1.357       .  S
C1675      C1678   1.409       .  A
C1675      C1682   1.403       .  A
C1678      C1679   1.410       .  A
C1678      F1683   1.357       .  S
C1679      C1680   1.408       .  A
C1679      F1685   1.358       .  S
C1680      C1681   1.406       .  A
C1681      C1682   1.399       .  A
C1681      F1684   1.358       .  S
C1682      F1686   1.358       .  S
C1689      C1690   1.406       .  A
C1689      C1694   1.401       .  A
C1689      F1707   1.358       .  S
C1690      C1695   1.495       .  S
C1690      C1691   1.411       .  A
C1691      C1692   1.408       .  A
C1691      F1696   1.358       .  S
C1692      C1693   1.406       .  A
C1692      F1708   1.357       .  S
C1693      C1694   1.407       .  A
C1694      F1697   1.358       .  S
C1695      C1698   1.412       .  A
C1695      C1702   1.405       .  A
C1698      C1699   1.404       .  A
C1698      F1703   1.358       .  S
C1699      C1700   1.406       .  A
C1699      F1705   1.358       .  S
C1700      C1701   1.414       .  A
C1701      C1702   1.402       .  A
C1701      F1704   1.357       .  S
C1702      F1706   1.358       .  S
C1709      C1710   1.410       .  A
C1709      C1714   1.409       .  A
C1709      F1727   1.358       .  S
C1710      C1715   1.499       .  S
C1710      C1711   1.406       .  A
C1711      C1712   1.408       .  A
C1711      F1716   1.357       .  S
C1712      C1713   1.412       .  A
C1712      F1728   1.358       .  S
C1713      C1714   1.407       .  A
C1714      F1717   1.357       .  S
C1715      C1718   1.410       .  A
C1715      C1722   1.406       .  A
C1718      C1719   1.412       .  A
C1718      F1723   1.357       .  S
C1719      C1720   1.409       .  A
C1719      F1725   1.357       .  S
C1720      C1721   1.408       .  A
C1721      C1722   1.403       .  A
C1721      F1724   1.358       .  S
C1722      F1726   1.358       .  S
C1729      C1730   1.407       .  A
C1729      C1734   1.401       .  A
C1729      F1747   1.358       .  S
C1730      C1735   1.489       .  S
C1730      C1731   1.403       .  A
C1731      C1732   1.400       .  A
C1731      F1736   1.358       .  S
C1732      C1733   1.416       .  A
C1732      F1748   1.357       .  S
C1733      C1734   1.413       .  A
C1734      F1737   1.358       .  S
C1735      C1738   1.406       .  A
C1735      C1742   1.409       .  A
C1738      C1739   1.398       .  A
C1738      F1743   1.358       .  S
C1739      C1740   1.405       .  A
C1739      F1745   1.358       .  S
C1740      C1741   1.406       .  A
C1741      C1742   1.405       .  A
C1741      F1744   1.358       .  S
C1742      F1746   1.358       .  S
C1749      C1750   1.406       .  A
C1749      C1754   1.401       .  A
C1749      F1767   1.358       .  S
C1750      C1755   1.490       .  S
C1750      C1751   1.403       .  A
C1751      C1752   1.404       .  A
C1751      F1756   1.358       .  S
C1752      C1753   1.418       .  A
C1752      F1768   1.358       .  S
C1753      C1754   1.413       .  A
C1754      F1757   1.358       .  S
C1755      C1758   1.409       .  A
C1755      C1762   1.405       .  A
C1758      C1759   1.407       .  A
C1758      F1763   1.358       .  S
C1759      C1760   1.406       .  A
C1759      F1765   1.358       .  S
C1760      C1761   1.407       .  A
C1761      C1762   1.400       .  A
C1761      F1764   1.358       .  S
C1762      F1766   1.358       .  S
C1769      C1770   1.401       .  A
C1769      C1774   1.403       .  A
C1769      F1787   1.358       .  S
C1770      C1775   1.485       .  S
C1770      C1771   1.405       .  A
C1771      C1772   1.404       .  A
C1771      F1776   1.358       .  S
C1772      C1773   1.413       .  A
C1772      F1788   1.356       .  S
C1773      C1774   1.415       .  A
C1774      F1777   1.357       .  S
C1775      C1778   1.407       .  A
C1775      C1782   1.403       .  A
C1778      C1779   1.405       .  A
C1778      F1783   1.357       .  S
C1779      C1780   1.405       .  A
C1779      F1785   1.357       .  S
C1780      C1781   1.412       .  A
C1781      C1782   1.399       .  A
C1781      F1784   1.359       .  S
C1782      F1786   1.358       .  S
C1789      C1790   1.400       .  A
C1789      C1794   1.395       .  A
C1789      F1807   1.358       .  S
C1790      C1795   1.476       .  S
C1790      C1791   1.412       .  A
C1791      C1792   1.395       .  A
C1791      F1796   1.358       .  S
C1792      C1793   1.400       .  A
C1792      F1808   1.358       .  S
C1793      C1794   1.409       .  A
C1794      F1797   1.354       .  S
C1795      C1798   1.404       .  A
C1795      C1802   1.406       .  A
C1798      C1799   1.396       .  A
C1798      F1803   1.358       .  S
C1799      C1800   1.409       .  A
C1799      F1805   1.358       .  S
C1800      C1801   1.409       .  A
C1801      C1802   1.396       .  A
C1801      F1804   1.358       .  S
C1802      F1806   1.358       .  S
C1809      C1810   1.400       .  A
C1809      C1814   1.395       .  A
C1809      F1827   1.358       .  S
C1810      C1815   1.464       .  S
C1810      C1811   1.402   1_655  A
C1811      C1812   1.396       .  A
C1811      F1816   1.358       .  S
C1812      C1813   1.407   1_455  A
C1812      F1828   1.358       .  S
C1813      C1814   1.406       .  A
C1814      F1817   1.356       .  S
C1815      C1818   1.402       .  A
C1815      C1822   1.399   1_655  A
C1818      C1819   1.398       .  A
C1818      F1823   1.358       .  S
C1819      C1820   1.409       .  A
C1819      F1825   1.358       .  S
C1820      C1821   1.408   1_655  A
C1821      C1822   1.392       .  A
C1821      F1824   1.358       .  S
C1822      F1826   1.358       .  S
C1829      C1830   1.404   1_455  A
C1829      C1834   1.399       .  A
C1829      F1847   1.358       .  S
C1830      C1835   1.460       .  S
C1830      C1831   1.398       .  A
C1831      C1832   1.387       .  A
C1831      F1836   1.359       .  S
C1832      C1833   1.405       .  A
C1832      F1848   1.359       .  S
C1833      C1834   1.404   1_655  A
C1834      F1837   1.358       .  S
C1835      C1838   1.397       .  A
C1835      C1842   1.404   1_655  A
C1838      C1839   1.391       .  A
C1838      F1843   1.358       .  S
C1839      C1840   1.410       .  A
C1839      F1845   1.359       .  S
C1840      C1841   1.402   1_655  A
C1841      C1842   1.394       .  A
C1841      F1844   1.358       .  S
C1842      F1846   1.358       .  S
C1849      C1850   1.407   1_655  A
C1849      C1854   1.406       .  A
C1849      F1867   1.357       .  S
C1850      C1855   1.496       .  S
C1850      C1851   1.407       .  A
C1851      C1852   1.407       .  A
C1851      F1856   1.357       .  S
C1852      C1853   1.407       .  A
C1852      F1868   1.358       .  S
C1853      C1854   1.407   1_455  A
C1854      F1857   1.358       .  S
C1855      C1858   1.407       .  A
C1855      C1862   1.402       .  A
C1858      C1859   1.409       .  A
C1858      F1863   1.358       .  S
C1859      C1860   1.415       .  A
C1859      F1865   1.357       .  S
C1860      C1861   1.419       .  A
C1861      C1862   1.407       .  A
C1861      F1864   1.357       .  S
C1862      F1866   1.357       .  S
C1869      C1870   1.411       .  A
C1869      C1874   1.410       .  A
C1869      F1887   1.358       .  S
C1870      C1875   1.503       .  S
C1870      C1871   1.408   1_455  A
C1871      C1872   1.404       .  A
C1871      F1876   1.358       .  S
C1872      C1873   1.411   1_655  A
C1872      F1888   1.358       .  S
C1873      C1874   1.412       .  A
C1874      F1877   1.358       .  S
C1875      C1878   1.412       .  A
C1875      C1882   1.409   1_455  A
C1878      C1879   1.411       .  A
C1878      F1883   1.357       .  S
C1879      C1880   1.407   1_455  A
C1879      F1885   1.357       .  S
C1880      C1881   1.407       .  A
C1881      C1882   1.402       .  A
C1881      F1884   1.358       .  S
C1882      F1886   1.358       .  S
C1889      C1890   1.399       .  A
C1889      C1894   1.392       .  A
C1889      F1907   1.358       .  S
C1890      C1895   1.476       .  S
C1890      C1891   1.409       .  A
C1891      C1892   1.403       .  A
C1891      F1896   1.358       .  S
C1892      C1893   1.405       .  A
C1892      F1908   1.358   1_655  S
C1893      C1894   1.408       .  A
C1894      F1897   1.358       .  S
C1895      C1898   1.402       .  A
C1895      C1902   1.405       .  A
C1898      C1899   1.399       .  A
C1898      F1903   1.358       .  S
C1899      C1900   1.411       .  A
C1899      F1905   1.358       .  S
C1900      C1901   1.407       .  A
C1901      C1902   1.395       .  A
C1901      F1904   1.358       .  S
C1902      F1906   1.358       .  S
