geometry optimzed in LAMMPS
_audit_creation_date              2020-11-30 
_audit_creation_method            'lammps2cif' 
_symmetry_space_group_name_H-M    'P1' 
_symmetry_Int_Tables_number       1 
_symmetry_cell_setting            triclinic 
loop_ 
_symmetry_equiv_pos_as_xyz 
  x,y,z 
_cell_length_a                    35.76388377 
_cell_length_b                    36.28353629904253 
_cell_length_c                    36.173739463613295 
_cell_angle_alpha                 90.12916668416291 
_cell_angle_beta                  90.15864870852258 
_cell_angle_gamma                 89.82403262005766 
loop_ 
_atom_site_label 
_atom_site_type_symbol 
_atom_site_fract_x 
_atom_site_fract_y 
_atom_site_fract_z 
_atom_site_charge 
Zr1        Zr  0.48935491  0.07303893  0.16749347     2.17500
O2          O  0.50563833  0.00766694  0.16851075    -0.51700
O3          O  0.52593392  0.08389683  0.11169543    -0.74900
O4          O  0.45335878  0.03764767  0.12357736    -0.81700
O5          O  0.55795154  0.08544544  0.24641033    -0.83500
O6          O  0.39872822  0.06728348  0.11098291    -0.79100
O7          O  0.54601007  0.04941006  0.19615585    -0.90700
O8          O  0.52578557  0.14505373  0.09859618    -0.76700
O9          O  0.46375736  0.12209694  0.13194802    -0.86200
O10         O  0.52305944  0.12651428  0.18513312    -0.85900
O11         O  0.42409391  0.07458285  0.18378578    -0.72600
O12         O  0.47819013  0.07943616  0.23270789    -0.84700
Zr13       Zr  0.42165637  0.18658452  0.23172386     2.26400
Zr14       Zr  0.39890552  0.12475484  0.14819545     2.06300
Zr15       Zr  0.51145720  0.13390760  0.24969931     2.10000
Zr16       Zr  0.49704790  0.17575469  0.15065855     1.78800
O17         O  0.52514345  0.10959776  0.31099141    -0.93600
O18         O  0.47349626  0.20785556  0.09619858    -0.41400
O19         O  0.48668555  0.18474924  0.21563121    -0.78000
O20         O  0.43272115  0.17950086  0.16631446    -0.96700
O21         O  0.38778931  0.13325530  0.21293245    -0.90000
O22         O  0.44687587  0.13702975  0.26668990    -0.92800
C23         C  0.53402598  0.11153974  0.09111689     1.00900
C24         C  0.56537918  0.05849385  0.22460856     1.13900
C25         C  0.42164929  0.03992144  0.10717258     1.04600
O26         O  0.38917268  0.14042011  0.08344931    -0.95000
O27         O  0.35942335  0.18007476  0.14452533    -0.90700
O28         O  0.37154439  0.21419448  0.19631280    -0.83900
C29         C  0.35497032  0.20861462  0.16535322     1.11300
O30         O  0.42518736  0.01939990  0.26221280    -0.97000
Zr31       Zr  0.41294637  0.08402658  0.24819850     1.88900
O32         O  0.36832961  0.17660389  0.27226166    -0.73600
O33         O  0.33513793  0.10323451  0.15657372    -0.52900
O34         O  0.35978344  0.04622001  0.22975001    -0.97500
O35         O  0.42103260  0.07213091  0.31408381    -0.54800
O36         O  0.35968475  0.11476530  0.27714783    -0.74100
C37         C  0.34997505  0.14833097  0.28328311     0.98200
O38         O  0.42141561  0.25361032  0.23737107    -0.62900
O39         O  0.57071143  0.16635215  0.24458328    -0.57700
O40         O  0.45191700  0.21387438  0.28627552    -0.94400
O41         O  0.50677800  0.18291705  0.29484119    -0.92900
O42         O  0.56249447  0.19305843  0.15756190    -0.93200
O43         O  0.50484120  0.24236890  0.15233976    -0.92000
C44         C  0.48286072  0.20779958  0.30357244     1.17100
H45         H  0.54934570  0.12384238  0.17990776     0.33000
H46         H  0.42428706  0.20093917  0.15295498     0.43900
H47         H  0.44396293  0.14127211  0.29285628     0.37400
H48         H  0.41207553  0.05158155  0.17774243     0.33900
H49         H  0.49469210  0.20833114  0.07865414     0.25700
H50         H  0.32374376  0.10495380  0.13167372     0.31600
H51         H  0.33796381  0.06306540  0.23021162     0.37500
H52         H  0.57290148  0.19190932  0.13225587     0.32000
H53         H  0.56371791  0.19203020  0.23839805     0.30800
H54         H  0.54751560  0.12331283  0.31941336     0.32500
H55         H  0.41060256  0.09397537  0.32688056     0.31500
H56         H  0.48404455  0.25139919  0.16797615     0.35500
H57         H  0.42240736  0.26307009  0.21173008     0.28200
H58         H  0.51230976  0.00114830  0.14274518     0.32500
H59         H  0.40310378  0.01068846  0.27609243     0.35300
H60         H  0.58040196  0.16774138  0.27020360     0.27900
H61         H  0.39613500  0.26019907  0.24637183     0.40800
H62         H  0.41243928  0.13244296  0.07094879     0.30800
H63         H  0.45534467  0.19057895  0.08493276     0.38500
H64         H  0.44834465  0.07373907  0.31830194     0.30300
H65         H  0.33758426  0.07648339  0.16117398     0.30400
H66         H  0.48195950  0.99450515  0.17340326     0.30600
Zr67       Zr  0.06435122  0.17120105  0.48609417     2.17500
O68         O  0.99700230  0.17039050  0.49669196    -0.51700
O69         O  0.07564441  0.11463198  0.52097890    -0.74900
O70         O  0.03311497  0.12583611  0.44756319    -0.81700
O71         O  0.06948375  0.25130989  0.55402942    -0.83500
O72         O  0.06853730  0.11511721  0.39626241    -0.79100
O73         O  0.03741149  0.19834323  0.54242928    -0.90700
O74         O  0.13826872  0.10683405  0.52569408    -0.76700
O75         O  0.11751433  0.13887920  0.46271760    -0.86200
O76         O  0.11590758  0.19210117  0.52201205    -0.85900
O77         O  0.06969969  0.18782096  0.42172781    -0.72600
O78         O  0.06742955  0.23664872  0.47584484    -0.84700
Zr79       Zr  0.17770924  0.24275039  0.42340657     2.26400
Zr80       Zr  0.12385700  0.15554471  0.39882710     2.06300
Zr81       Zr  0.12050568  0.25698668  0.51050551     2.10000
Zr82       Zr  0.16871472  0.16039300  0.49854740     1.78800
O83         O  0.09134497  0.31743545  0.51617766    -0.93600
O84         O  0.20536096  0.10785491  0.47708009    -0.41400
O85         O  0.17436845  0.22550135  0.48752523    -0.78000
O86         O  0.17546628  0.17732194  0.43528538    -0.96700
O87         O  0.12624563  0.22054097  0.38819396    -0.90000
O88         O  0.12484898  0.27498969  0.44687718    -0.92800
C89         C  0.10458112  0.09603393  0.53109922     1.00900
C90         C  0.04354502  0.22803469  0.56106012     1.13900
C91         C  0.03932564  0.10991664  0.41646328     1.04600
O92         O  0.14814000  0.09304584  0.39283890    -0.95000
O93         O  0.18241374  0.15679905  0.36202911    -0.90700
O94         O  0.21337231  0.20921241  0.37781893    -0.83900
C95         C  0.21077795  0.17874702  0.35998340     1.11300
O96         O  0.00587904  0.25347272  0.42268813    -0.97000
Zr97       Zr  0.07318370  0.25261893  0.41175606     1.88900
O98         O  0.16418677  0.28051954  0.36858830    -0.73600
O99         O  0.10255585  0.15759613  0.33486692    -0.52900
O100        O  0.03510499  0.23822974  0.35770424    -0.97500
O101        O  0.05674314  0.31746941  0.42015371    -0.54800
O102        O  0.10170867  0.28074398  0.35797744    -0.74100
C103        C  0.13531566  0.28852642  0.34872214     0.98200
O104        O  0.24497632  0.25163589  0.41616873    -0.62900
O105        O  0.14913557  0.25989921  0.57164827    -0.57700
O106        O  0.20336629  0.29540819  0.45779006    -0.94400
O107        O  0.17303428  0.29904503  0.51284169    -0.92900
O108        O  0.18374051  0.16940057  0.56363509    -0.93200
O109        O  0.23564031  0.16478451  0.51029491    -0.92000
C110        C  0.19882152  0.30894981  0.49037476     1.17100
H111        H  0.11233146  0.18671628  0.54789400     0.33000
H112        H  0.19854595  0.16551348  0.42819742     0.43900
H113        H  0.12808014  0.30126882  0.44441931     0.37400
H114        H  0.04757128  0.18038426  0.40819807     0.33900
H115        H  0.21226952  0.09417869  0.49975478     0.25700
H116        H  0.11706695  0.17774306  0.32340876     0.31600
H117        H  0.04752635  0.21653299  0.34645677     0.37500
H118        H  0.19569122  0.14602837  0.57144847     0.32000
H119        H  0.13338961  0.27739145  0.58579762     0.30800
H120        H  0.07007866  0.31679044  0.49860719     0.32500
H121        H  0.04055567  0.32346506  0.39873791     0.31500
H122        H  0.24446957  0.18391740  0.49293918     0.35500
H123        H  0.24842091  0.27725653  0.40744986     0.28200
H124        H  0.99109822  0.14474805  0.50392564     0.32500
H125        H  0.99601106  0.27544171  0.40971924     0.35300
H126        H  0.14424428  0.23561678  0.58301484     0.27900
H127        H  0.25582800  0.25095310  0.44137972     0.40800
H128        H  0.13105179  0.08070443  0.37518086     0.30800
H129        H  0.18707434  0.09174183  0.46437694     0.38500
H130        H  0.07995130  0.33139901  0.41539311     0.30300
H131        H  0.11261780  0.13478827  0.32351628     0.30400
H132        H  0.98537305  0.17362663  0.47203811     0.30600
Zr133      Zr  0.24016736  0.41961235  0.18128283     2.17500
O134        O  0.25948039  0.41380200  0.24576739    -0.51700
O135        O  0.27423702  0.36338350  0.16471444    -0.74900
O136        O  0.20331920  0.37437229  0.21437547    -0.81700
O137        O  0.30265713  0.50449898  0.17762048    -0.83500
O138        O  0.15075949  0.36164865  0.18102692    -0.79100
O139        O  0.29484845  0.45029987  0.20824672    -0.90700
O140        O  0.28152429  0.36000951  0.10239109    -0.76700
O141        O  0.21847808  0.38833114  0.12760216    -0.86200
O142        O  0.27385272  0.44444947  0.13048766    -0.85900
O143        O  0.17403917  0.43281929  0.17898211    -0.72600
O144        O  0.22482734  0.48417825  0.18070944    -0.84700
Zr145      Zr  0.17012218  0.48991361  0.07200067     2.26400
Zr146      Zr  0.15277882  0.40023946  0.12480602     2.06300
Zr147      Zr  0.25744698  0.50830770  0.12854890     2.10000
Zr148      Zr  0.25158055  0.41399106  0.07680214     1.78800
O149        O  0.26619335  0.56751962  0.15917063    -0.93600
O150        O  0.23432314  0.36235742  0.03715016    -0.41400
O151        O  0.23631002  0.47829471  0.07360012    -0.78000
O152        O  0.18619173  0.42540771  0.07299191    -0.96700
O153        O  0.13687212  0.46446842  0.12290206    -0.90000
O154        O  0.19190431  0.52208246  0.12524528    -0.92800
C155        C  0.28541410  0.34715324  0.13508032     1.00900
C156        C  0.31162215  0.48108287  0.20250042     1.13900
C157        C  0.17218593  0.35755199  0.20955256     1.04600
O158        O  0.15729987  0.33657301  0.10368320    -0.95000
O159        O  0.11479249  0.39946934  0.06801066    -0.90700
O160        O  0.12398005  0.45412915  0.03846637    -0.83900
C161        C  0.10900131  0.42217781  0.04117009     1.11300
O162        O  0.16385979  0.49979781  0.24327942    -0.97000
Zr163      Zr  0.15900505  0.49648813  0.17607417     1.88900
O164        O  0.11774249  0.53046778  0.08665671    -0.73600
O165        O  0.08691084  0.39526408  0.14068406    -0.52900
O166        O  0.10401294  0.47426580  0.20885717    -0.97500
O167        O  0.16852629  0.55931803  0.19803079    -0.54800
O168        O  0.10587895  0.52733504  0.14821602    -0.74100
C169        C  0.09796208  0.53774629  0.11532977     0.98200
O170        O  0.15666167  0.49940575  0.00651007    -0.62900
O171        O  0.31857560  0.50975665  0.09907066    -0.57700
O172        O  0.20308588  0.54262987  0.04524798    -0.94400
O173        O  0.25364443  0.55497381  0.08143122    -0.92900
O174        O  0.31740931  0.42529880  0.06390924    -0.93200
O175        O  0.25888091  0.42546195  0.01088496    -0.92000
C176        C  0.23224664  0.56145279  0.05378722     1.17100
H177        H  0.30048534  0.44083329  0.13349997     0.33000
H178        H  0.17920162  0.41358090  0.05012659     0.43900
H179        H  0.18742187  0.54824376  0.12302420     0.37400
H180        H  0.16125813  0.42525716  0.20110703     0.33900
H181        H  0.25760175  0.34785140  0.03401943     0.25700
H182        H  0.08243558  0.36846756  0.14311819     0.31600
H183        H  0.08492216  0.47018311  0.18942840     0.37500
H184        H  0.32445009  0.40619545  0.04560062     0.32000
H185        H  0.31338122  0.50855355  0.07221896     0.30800
H186        H  0.24512892  0.58302609  0.15049100     0.32500
H187        H  0.15833257  0.57531582  0.17831576     0.31500
H188        H  0.23778446  0.44199123  0.00437335     0.35500
H189        H  0.14926900  0.52559834  0.00384118     0.28200
H190        H  0.26378552  0.38716423  0.24998055     0.32500
H191        H  0.14392212  0.51702554  0.25132315     0.35300
H192        H  0.32779827  0.53510857  0.10336543     0.27900
H193        H  0.18099891  0.49710437  0.99373396     0.40800
H194        H  0.17725028  0.32532518  0.11905209     0.30800
H195        H  0.21818416  0.34672093  0.05279089     0.38500
H196        H  0.19590982  0.56301721  0.19699949     0.30300
H197        H  0.08525418  0.40489569  0.16624516     0.30400
H198        H  0.23701228  0.42002058  0.26048226     0.30600
Zr199      Zr  0.92311829  0.31487220  0.76383514     2.17500
O200        O  0.92360451  0.24827770  0.75405278    -0.51700
O201        O  0.86601135  0.32438372  0.72852352    -0.74900
O202        O  0.87820521  0.28373533  0.80208916    -0.81700
O203        O  0.00023972  0.32556041  0.69190181    -0.83500
O204        O  0.86581123  0.31604392  0.85471111    -0.79100
O205        O  0.95085570  0.28923825  0.70727207    -0.90700
O206        O  0.85327425  0.38536580  0.72844427    -0.76700
O207        O  0.88857892  0.36558423  0.78832679    -0.86200
O208        O  0.94104880  0.36682843  0.72839679    -0.85900
O209        O  0.93991658  0.31902698  0.82842147    -0.72600
O210        O  0.98930199  0.31954220  0.77308105    -0.84700
Zr211      Zr  0.99150812  0.42736393  0.82714614     2.26400
Zr212      Zr  0.90553416  0.37144115  0.85217936     2.06300
Zr213      Zr  0.00681498  0.37303092  0.73884015     2.10000
Zr214      Zr  0.90737542  0.41745631  0.75330209     1.78800
O215        O  0.06487740  0.34184291  0.72262902    -0.93600
O216        O  0.85203455  0.45148544  0.77337984    -0.41400
O217        O  0.97345593  0.42475526  0.76310323    -0.78000
O218        O  0.92489678  0.42405456  0.81679664    -0.96700
O219        O  0.97157309  0.37551285  0.86168441    -0.90000
O220        O  0.02532952  0.37651815  0.80251113    -0.92800
C221        C  0.84457321  0.35178872  0.72123762     1.00900
C222        C  0.97852367  0.29798760  0.68635964     1.13900
C223        C  0.86187299  0.28781389  0.83332506     1.04600
O224        O  0.84114041  0.39317898  0.85525806    -0.95000
O225        O  0.90795943  0.42753549  0.89174253    -0.90700
O226        O  0.95943430  0.46010483  0.87542512    -0.83900
C227        C  0.92969172  0.45588144  0.89449229     1.11300
O228        O  0.01290723  0.25879291  0.82537386    -0.97000
Zr229      Zr  0.00573856  0.32466427  0.83720679     1.88900
O230        O  0.02853062  0.41494454  0.88296049    -0.73600
O231        O  0.90584395  0.34988550  0.91589846    -0.52900
O232        O  0.99254358  0.28790595  0.89190021    -0.97500
O233        O  0.07207350  0.31174659  0.82752896    -0.54800
O234        O  0.03539258  0.35328689  0.89008376    -0.74100
C235        C  0.03988728  0.38649245  0.90112924     0.98200
O236        O  0.00186216  0.49380459  0.82471671    -0.62900
O237        O  0.00544737  0.40963788  0.68250514    -0.57700
O238        O  0.04778794  0.45114241  0.79814014    -0.94400
O239        O  0.05527922  0.41943581  0.74416544    -0.92900
O240        O  0.91135182  0.43056340  0.68743289    -0.93200
O241        O  0.91253246  0.48305803  0.74012772    -0.92000
C242        C  0.06497504  0.44408623  0.76780935     1.17100
H243        H  0.93515284  0.36324563  0.70258706     0.33000
H244        H  0.91269252  0.44627427  0.82514613     0.43900
H245        H  0.05193824  0.38008113  0.80509853     0.37400
H246        H  0.93332483  0.29684017  0.84151951     0.33900
H247        H  0.86110011  0.47074319  0.79058431     0.25700
H248        H  0.92874366  0.36058083  0.92694613     0.31600
H249        H  0.97449411  0.30295730  0.90617259     0.37500
H250        H  0.88538340  0.43630620  0.67976423     0.32000
H251        H  0.02612867  0.39966621  0.66730845     0.30800
H252        H  0.07512411  0.35615550  0.70171986     0.32500
H253        H  0.07915492  0.29477700  0.84777519     0.31500
H254        H  0.92252279  0.49403313  0.76319725     0.35500
H255        H  0.97669451  0.50496384  0.82197987     0.28200
H256        H  0.89733074  0.24109035  0.74930785     0.32500
H257        H  0.03027020  0.24932101  0.84451688     0.35300
H258        H  0.98246762  0.40190068  0.66935857     0.27900
H259        H  0.01044490  0.50114488  0.84972490     0.40800
H260        H  0.83101835  0.38188661  0.87800820     0.30800
H261        H  0.83833607  0.43401943  0.78934179     0.38500
H262        H  0.08538878  0.33483362  0.83364452     0.30300
H263        H  0.88502065  0.36334216  0.92792444     0.30400
H264        H  0.92991870  0.23743223  0.77838751     0.30600
Zr265      Zr  0.75519240  0.92348201  0.31857154     2.17500
O266        O  0.73963905  0.91893662  0.25293216    -0.51700
O267        O  0.71683527  0.86935433  0.33202967    -0.74900
O268        O  0.78932840  0.87569091  0.28623968    -0.81700
O269        O  0.69736315  0.01186309  0.32092746    -0.83500
O270        O  0.84222949  0.86148526  0.31823150    -0.79100
O271        O  0.70312292  0.95715983  0.29053618    -0.90700
O272        O  0.71588280  0.86143856  0.39413555    -0.76700
O273        O  0.77684587  0.89038482  0.37113069    -0.86200
O274        O  0.72157494  0.94844994  0.36956069    -0.85900
O275        O  0.82161688  0.93465069  0.32153824    -0.72600
O276        O  0.77135115  0.98778935  0.32024069    -0.84700
Zr277      Zr  0.82708520  0.98957008  0.42865607     2.26400
Zr278      Zr  0.84289394  0.90057754  0.37476846     2.06300
Zr279      Zr  0.73963165  0.01198716  0.37309062     2.10000
Zr280      Zr  0.74355246  0.91573543  0.42199755     1.78800
O281        O  0.73680336  0.07322504  0.34576149    -0.93600
O282        O  0.75843184  0.86476560  0.46335723    -0.41400
O283        O  0.76069681  0.97943089  0.42650624    -0.78000
O284        O  0.80915254  0.92541181  0.42698181    -0.96700
O285        O  0.85973561  0.96453023  0.37704966    -0.90000
O286        O  0.80543714  0.02369956  0.37675048    -0.92800
C287        C  0.70847169  0.85084099  0.36114806     1.00900
C288        C  0.68817765  0.98906950  0.29536589     1.13900
C289        C  0.82005276  0.85784242  0.29010332     1.04600
O290        O  0.84107021  0.83640326  0.39416196    -0.95000
O291        O  0.88012770  0.89670780  0.43260268    -0.90700
O292        O  0.86834882  0.94997280  0.46360676    -0.83900
C293        C  0.88362041  0.91806628  0.46105131     1.11300
O294        O  0.83089692  0.00249339  0.25821309    -0.97000
Zr295      Zr  0.83726070  0.99836130  0.32514033     1.88900
O296        O  0.88564565  0.02110933  0.41460385    -0.73600
O297        O  0.90861450  0.89811817  0.35760143    -0.52900
O298        O  0.88918691  0.98048826  0.28554558    -0.97500
O299        O  0.82911049  0.06362639  0.31128411    -0.54800
O300        O  0.89257796  0.02545057  0.35248121    -0.74100
C301        C  0.90417673  0.03021853  0.38567487     0.98200
O302        O  0.83627537  0.01054080  0.49219932    -0.62900
O303        O  0.67834531  0.01815293  0.40187103    -0.57700
O304        O  0.79775054  0.04431210  0.45591973    -0.94400
O305        O  0.74547722  0.05693696  0.42217287    -0.92900
O306        O  0.67737373  0.92660267  0.43348556    -0.93200
O307        O  0.73267026  0.92822912  0.48726441    -0.92000
C308        C  0.76837625  0.06353118  0.44865194     1.17100
H309        H  0.69496598  0.94555820  0.36608331     0.33000
H310        H  0.81497669  0.91263586  0.44959962     0.43900
H311        H  0.81069376  0.04961950  0.37967497     0.37400
H312        H  0.83389081  0.92648882  0.29929048     0.33900
H313        H  0.73393156  0.85404576  0.47002295     0.25700
H314        H  0.91489158  0.87152907  0.35742556     0.31600
H315        H  0.90696202  0.96780223  0.30224508     0.37500
H316        H  0.66867785  0.90418205  0.44636539     0.32000
H317        H  0.66970175  0.04315269  0.39491634     0.30800
H318        H  0.71704898  0.08642234  0.35968223     0.32500
H319        H  0.80498320  0.06503701  0.29787369     0.31500
H320        H  0.75449248  0.94302510  0.49522939     0.35500
H321        H  0.82807657  0.98990457  0.50806089     0.28200
H322        H  0.73136762  0.89323318  0.24868662     0.32500
H323        H  0.81936603  0.97883752  0.25068031     0.35300
H324        H  0.66180459  0.00133785  0.38781476     0.27900
H325        H  0.86366972  0.01221516  0.49593624     0.40800
H326        H  0.81591843  0.82758528  0.38688178     0.30800
H327        H  0.77028413  0.84595943  0.44730582     0.38500
H328        H  0.84824626  0.06903982  0.29233741     0.30300
H329        H  0.90911086  0.90552185  0.33131006     0.30400
H330        H  0.76354908  0.92127888  0.23939326     0.30600
Zr331      Zr  0.07662928  0.81947392  0.73775560     2.17500
O332        O  0.07563273  0.75364180  0.75154026    -0.51700
O333        O  0.13332118  0.82994479  0.77356613    -0.74900
O334        O  0.11944313  0.78513861  0.69945782    -0.81700
O335        O  0.99602653  0.82770241  0.80490187    -0.83500
O336        O  0.13158852  0.81680888  0.64646167    -0.79100
O337        O  0.04847198  0.79387361  0.79363281    -0.90700
O338        O  0.14683453  0.89111168  0.77292066    -0.76700
O339        O  0.11146319  0.86892922  0.71159755    -0.86200
O340        O  0.05939246  0.87272309  0.77208224    -0.85900
O341        O  0.05850558  0.82233547  0.67346797    -0.72600
O342        O  0.01035534  0.82463953  0.72923159    -0.84700
Zr343      Zr  0.00868324  0.93137259  0.67230130     2.26400
Zr344      Zr  0.09338743  0.87323450  0.64787739     2.06300
Zr345      Zr  0.99362073  0.87915139  0.76221676     2.10000
Zr346      Zr  0.09326988  0.92215657  0.74543450     1.78800
O347        O  0.93012371  0.85798506  0.77346074    -0.93600
O348        O  0.14787856  0.95539413  0.72331734    -0.41400
O349        O  0.02720614  0.92957319  0.73630067    -0.78000
O350        O  0.07538368  0.92717284  0.68212964    -0.96700
O351        O  0.02725694  0.87809215  0.63878426    -0.90000
O352        O  0.97381444  0.88238255  0.69878149    -0.92800
C353        C  0.15447452  0.85752498  0.78102162     1.00900
C354        C  0.01837110  0.80081699  0.81173940     1.13900
C355        C  0.13525025  0.78872629  0.66795876     1.04600
O356        O  0.15853681  0.89189270  0.64303680    -0.95000
O357        O  0.09269630  0.92907994  0.60794240    -0.90700
O358        O  0.04240404  0.96357574  0.62486837    -0.83900
C359        C  0.07153322  0.95798538  0.60528463     1.11300
O360        O  0.98385069  0.76333244  0.67650588    -0.97000
Zr361      Zr  0.99260267  0.82898950  0.66550290     1.88900
O362        O  0.96974017  0.91717743  0.61798740    -0.73600
O363        O  0.09133351  0.84937298  0.58489908    -0.52900
O364        O  0.99912979  0.78732064  0.61309506    -0.97500
O365        O  0.92639644  0.82232960  0.67987011    -0.54800
O366        O  0.96444385  0.85529379  0.61078770    -0.74100
C367        C  0.95884366  0.88841495  0.60005927     0.98200
O368        O  0.99232740  0.99662185  0.66794426    -0.62900
O369        O  0.99945712  0.90561216  0.82394208    -0.57700
O370        O  0.95875160  0.96206598  0.70614725    -0.94400
O371        O  0.95324929  0.93263033  0.76122488    -0.92900
O372        O  0.08951028  0.94057416  0.81008976    -0.93200
O373        O  0.08809398  0.98892380  0.75022710    -0.92000
C374        C  0.94435169  0.95819101  0.73835200     1.17100
H375        H  0.06532230  0.86982578  0.79798495     0.33000
H376        H  0.08824856  0.94887638  0.67363998     0.43900
H377        H  0.94730092  0.88705204  0.69662950     0.37400
H378        H  0.06435591  0.79965896  0.66077105     0.33900
H379        H  0.16295298  0.96042393  0.74576297     0.25700
H380        H  0.06543995  0.85407398  0.57634692     0.31600
H381        H  0.02251275  0.79504886  0.60080371     0.37500
H382        H  0.11561111  0.94625021  0.81726399     0.32000
H383        H  0.00370937  0.93222109  0.81976675     0.30800
H384        H  0.92491824  0.86496961  0.79942368     0.32500
H385        H  0.92598252  0.81211129  0.70522611     0.31500
H386        H  0.06625074  0.99546684  0.73463786     0.35500
H387        H  0.01613090  0.01037304  0.66991394     0.28200
H388        H  0.10203530  0.74617032  0.75518128     0.32500
H389        H  0.99389695  0.75887410  0.70163447     0.35300
H390        H  0.97398652  0.90426226  0.83449225     0.27900
H391        H  0.98349210  0.00061662  0.64229430     0.40800
H392        H  0.16198222  0.89839984  0.61670510     0.30800
H393        H  0.16255346  0.93681037  0.70944834     0.38500
H394        H  0.91769215  0.80187632  0.66389392     0.30300
H395        H  0.10689889  0.86649951  0.57029602     0.30400
H396        H  0.06775470  0.74151268  0.72825022     0.30600
Zr397      Zr  0.32087290  0.75448496  0.92587041     2.17500
O398        O  0.25420822  0.74208848  0.91861835    -0.51700
O399        O  0.33189822  0.71992574  0.86857807    -0.74900
O400        O  0.28268355  0.79005281  0.88394150    -0.81700
O401        O  0.32776409  0.69675913  0.01341102    -0.83500
O402        O  0.31514487  0.84150236  0.86796133    -0.79100
O403        O  0.29776403  0.70010112  0.95806113    -0.90700
O404        O  0.39410651  0.71582197  0.85835370    -0.76700
O405        O  0.37164760  0.77626779  0.89002803    -0.86200
O406        O  0.37388973  0.72086879  0.94697353    -0.85900
O407        O  0.32462123  0.81948932  0.93934384    -0.72600
O408        O  0.32625295  0.76984625  0.99063556    -0.84700
Zr409      Zr  0.43668983  0.82394714  0.98655069     2.26400
Zr410      Zr  0.37529930  0.84111485  0.90194861     2.06300
Zr411      Zr  0.38118074  0.73760546  0.01062128     2.10000
Zr412      Zr  0.42474658  0.74287212  0.91160898     1.78800
O413        O  0.36158901  0.72979746  0.07456652    -0.93600
O414        O  0.46118303  0.76046675  0.85766487    -0.41400
O415        O  0.43370270  0.75844217  0.97564778    -0.78000
O416        O  0.42946487  0.80730324  0.92246373    -0.96700
O417        O  0.38297627  0.85697517  0.96585713    -0.90000
O418        O  0.38626810  0.80227183  0.02339230    -0.92800
C419        C  0.36012001  0.71047110  0.84864004     1.00900
C420        C  0.30259066  0.68636533  0.99035334     1.13900
C421        C  0.28563274  0.82098460  0.86719807     1.04600
O422        O  0.38897416  0.84294443  0.83607551    -0.95000
O423        O  0.43274457  0.87814366  0.89526557    -0.90700
O424        O  0.46894060  0.86656935  0.94600194    -0.83900
C425        C  0.46294328  0.88191506  0.91457836     1.11300
O426        O  0.26630873  0.83014083  0.01650133    -0.97000
Zr427      Zr  0.33275151  0.83481979  0.00270186     1.88900
O428        O  0.42552168  0.87957670  0.02311208    -0.73600
O429        O  0.35468169  0.90506206  0.90410298    -0.52900
O430        O  0.29260601  0.88564169  0.98319453    -0.97500
O431        O  0.32065656  0.82736886  0.06859689    -0.54800
O432        O  0.36335589  0.88956575  0.02700405    -0.74100
C433        C  0.39735902  0.89960997  0.03219659     0.98200
O434        O  0.50417222  0.83283669  0.99080415    -0.62900
O435        O  0.40841371  0.67607586  0.00783690    -0.57700
O436        O  0.46451436  0.79635890  0.04196100    -0.94400
O437        O  0.43297741  0.74317020  0.05345258    -0.92900
O438        O  0.43665489  0.67725232  0.91997164    -0.93200
O439        O  0.49169699  0.73224233  0.91851967    -0.92000
C440        C  0.45871960  0.76671788  0.06044661     1.17100
H441        H  0.37044577  0.69467462  0.94377994     0.33000
H442        H  0.45123078  0.81370079  0.90831666     0.43900
H443        H  0.39091736  0.80693503  0.04931352     0.37400
H444        H  0.30186452  0.83229406  0.93351214     0.33900
H445        H  0.46904705  0.73695205  0.84611364     0.25700
H446        H  0.34994097  0.91163201  0.87795815     0.31600
H447        H  0.29482176  0.90435988  0.00302975     0.35100
H448        H  0.45248658  0.67015573  0.89869424     0.32000
H449        H  0.43507247  0.68027411  0.00199540     0.30800
H450        H  0.36730681  0.70374000  0.08046321     0.32500
H451        H  0.34061609  0.84142495  0.08129086     0.31500
H452        H  0.50073509  0.75367204  0.93295416     0.35500
H453        H  0.50891286  0.84402050  0.01536195     0.28200
H454        H  0.25205324  0.71672936  0.90863815     0.32500
H455        H  0.26012070  0.80394125  0.01194144     0.35300
H456        H  0.40850750  0.66742531  0.03376633     0.27900
H457        H  0.51507828  0.80777493  0.99213336     0.40800
H458        H  0.38298671  0.81790711  0.82688740     0.30800
H459        H  0.44274894  0.77107899  0.84015670     0.38500
H460        H  0.32636939  0.80119065  0.07393784     0.30300
H461        H  0.32952842  0.90413032  0.91543235     0.30400
H462        H  0.24357490  0.74114320  0.94384230     0.30600
Zr463      Zr  0.25719992  0.57951526  0.68001242     2.17500
O464        O  0.24329366  0.58200509  0.74599371    -0.51700
O465        O  0.21863133  0.63355756  0.66643426    -0.74900
O466        O  0.29239651  0.62641581  0.71229962    -0.81700
O467        O  0.20180662  0.49040205  0.68070404    -0.83500
O468        O  0.34377390  0.64146043  0.67857910    -0.79100
O469        O  0.20387582  0.54732352  0.70708529    -0.90700
O470        O  0.21596624  0.64110174  0.60410051    -0.76700
O471        O  0.27739174  0.61242032  0.62679122    -0.86200
O472        O  0.22289928  0.55419067  0.62964944    -0.85900
O473        O  0.32366776  0.56863878  0.67642629    -0.72600
O474        O  0.27430515  0.51545363  0.67860124    -0.84700
Zr475      Zr  0.32593553  0.51198629  0.56921747     2.26400
Zr476      Zr  0.34332097  0.60196297  0.62247091     2.06300
Zr477      Zr  0.24110795  0.49076150  0.62696176     2.10000
Zr478      Zr  0.24345120  0.58646885  0.57648576     1.78800
O479        O  0.23552762  0.42916428  0.65293773    -0.93600
O480        O  0.25628830  0.63652547  0.53362138    -0.41400
O481        O  0.25984199  0.52240534  0.57248921    -0.78000
O482        O  0.30917155  0.57651719  0.57072951    -0.96700
O483        O  0.36005351  0.53801971  0.61955338    -0.90000
O484        O  0.30671512  0.47923503  0.62255185    -0.92800
C485        C  0.20924329  0.65156443  0.63727210     1.00900
C486        C  0.19068958  0.51449864  0.70411744     1.13900
C487        C  0.32258262  0.64459199  0.70735634     1.04600
O488        O  0.34205960  0.66523371  0.60007793    -0.95000
O489        O  0.38156891  0.60220427  0.56593989    -0.90700
O490        O  0.37309478  0.54693648  0.53713326    -0.83900
C491        C  0.38796416  0.57887077  0.53970638     1.11300
O492        O  0.33322692  0.50110501  0.73975482    -0.97000
Zr493      Zr  0.34030759  0.50533702  0.67287412     1.88900
O494        O  0.38126113  0.47529175  0.58224189    -0.73600
O495        O  0.40864783  0.60604168  0.64114855    -0.52900
O496        O  0.39459723  0.53028849  0.70508462    -0.97500
O497        O  0.33652486  0.44150616  0.69346291    -0.54800
O498        O  0.39358633  0.47591197  0.64388318    -0.74100
C499        C  0.40137717  0.46712379  0.61046556     0.98200
O500        O  0.32766911  0.49969396  0.50294578    -0.62900
O501        O  0.17879534  0.48924580  0.59967615    -0.57700
O502        O  0.29782206  0.45488737  0.54513931    -0.94400
O503        O  0.24608009  0.44395246  0.57981344    -0.92900
O504        O  0.17657926  0.57754124  0.56740023    -0.93200
O505        O  0.23171702  0.57193829  0.51171209    -0.92000
C506        C  0.26863725  0.43594057  0.55355757     1.17100
H507        H  0.19631476  0.55702212  0.63338849     0.33000
H508        H  0.31595782  0.58836825  0.54786046     0.43900
H509        H  0.31196656  0.45321589  0.62004330     0.37400
H510        H  0.33651366  0.57679333  0.69841909     0.33900
H511        H  0.23206986  0.64951913  0.53060421     0.25700
H512        H  0.41628301  0.63123383  0.63397821     0.31600
H513        H  0.41197318  0.53769096  0.68520391     0.37500
H514        H  0.16836532  0.59945309  0.55323820     0.32000
H515        H  0.18254940  0.49649089  0.57357514     0.30800
H516        H  0.20988659  0.42113729  0.64646629     0.32500
H517        H  0.34370591  0.42626989  0.67188813     0.31500
H518        H  0.25245699  0.55529015  0.50446924     0.35500
H519        H  0.32408394  0.52383662  0.49071136     0.28200
H520        H  0.23543277  0.60768843  0.75116419     0.32500
H521        H  0.35483069  0.48641684  0.74860880     0.35300
H522        H  0.17229462  0.46276753  0.59849721     0.27900
H523        H  0.35370591  0.49226886  0.49724094     0.40800
H524        H  0.31767323  0.67521824  0.60835510     0.30800
H525        H  0.27204621  0.65389094  0.54788129     0.38500
H526        H  0.30944921  0.43693349  0.69665575     0.30300
H527        H  0.40824155  0.60655502  0.66850677     0.30400
H528        H  0.26761848  0.57898699  0.75881540     0.30600
Zr529      Zr  0.50866142  0.57170828  0.32794082     2.17500
O530        O  0.49500494  0.50585457  0.32706915    -0.51700
O531        O  0.47091894  0.58236974  0.38279535    -0.74900
O532        O  0.54422204  0.53850769  0.37384074    -0.81700
O533        O  0.44513955  0.57871005  0.24396035    -0.83500
O534        O  0.59696339  0.57010993  0.38873086    -0.79100
O535        O  0.45306360  0.54713090  0.29778858    -0.90700
O536        O  0.46627301  0.64408610  0.39139787    -0.76700
O537        O  0.53162019  0.62255976  0.36303280    -0.86200
O538        O  0.47459005  0.62376887  0.30625471    -0.85900
O539        O  0.57475416  0.57398404  0.31532829    -0.72600
O540        O  0.52254472  0.57524333  0.26320109    -0.84700
Zr541      Zr  0.57820161  0.68248433  0.26339876     2.26400
Zr542      Zr  0.59729753  0.62612336  0.35004051     2.06300
Zr543      Zr  0.48996659  0.62872957  0.24205563     2.10000
Zr544      Zr  0.49782356  0.67443660  0.34064440     1.78800
O545        O  0.48622459  0.60137870  0.18067804    -0.93600
O546        O  0.51576535  0.70903200  0.39572171    -0.41400
O547        O  0.51226946  0.68069280  0.27615569    -0.78000
O548        O  0.56303464  0.67920367  0.32829262    -0.96700
O549        O  0.61171526  0.63028846  0.28570544    -0.90000
O550        O  0.55530170  0.63165743  0.22867750    -0.92800
C551        C  0.46015183  0.61076014  0.40119170     1.00900
C552        C  0.43629754  0.55334914  0.26699224     1.13900
C553        C  0.57497429  0.54212744  0.39174903     1.04600
O554        O  0.60622487  0.64226141  0.41481109    -0.95000
O555        O  0.63472065  0.68302050  0.35363540    -0.90700
O556        O  0.62523153  0.71383376  0.29960253    -0.83900
C557        C  0.64050664  0.71020831  0.33143320     1.11300
O558        O  0.57615775  0.51413309  0.24109078    -0.97000
Zr559      Zr  0.58830079  0.57941113  0.25124635     1.88900
O560        O  0.63366075  0.66913111  0.22612727    -0.73600
O561        O  0.66232121  0.60700199  0.34458167    -0.52900
O562        O  0.63860911  0.53825637  0.27064122    -0.97500
O563        O  0.58377712  0.56760223  0.18492715    -0.54800
O564        O  0.64410073  0.60729217  0.22603206    -0.74100
C565        C  0.65328805  0.64043506  0.21815903     0.98200
O566        O  0.57957827  0.74861653  0.25128573    -0.62900
O567        O  0.42945024  0.65901055  0.23543321    -0.57700
O568        O  0.55010233  0.70892293  0.20788961    -0.94400
O569        O  0.49504795  0.67895621  0.19832316    -0.92900
O570        O  0.43270218  0.69067862  0.32906488    -0.93200
O571        O  0.49004318  0.74105982  0.33746367    -0.92000
C572        C  0.51920910  0.70377224  0.19045370     1.17100
H573        H  0.44805132  0.62075362  0.31002958     0.33000
H574        H  0.57021639  0.70151979  0.34096301     0.43900
H575        H  0.55956199  0.63524436  0.20261102     0.37400
H576        H  0.58721278  0.55150200  0.32259427     0.33900
H577        H  0.49405415  0.70748518  0.41257084     0.25700
H578        H  0.67340513  0.61212132  0.36916526     0.31600
H579        H  0.66009404  0.55459510  0.27590700     0.37500
H580        H  0.42439720  0.70364229  0.35172031     0.32000
H581        H  0.41801514  0.64741078  0.21334259     0.30800
H582        H  0.50027016  0.57792019  0.18280113     0.32500
H583        H  0.60149697  0.54709215  0.18036804     0.31500
H584        H  0.50133709  0.74806946  0.31354270     0.35500
H585        H  0.57581127  0.76064023  0.27560031     0.28200
H586        H  0.48667273  0.49984494  0.35243176     0.32500
H587        H  0.55752845  0.50747230  0.26013628     0.35300
H588        H  0.41434331  0.65003094  0.25640962     0.27900
H589        H  0.60571335  0.75429677  0.24439326     0.40800
H590        H  0.58058551  0.64485270  0.42471001     0.30800
H591        H  0.53532538  0.69377155  0.40765800     0.38500
H592        H  0.59559253  0.58904874  0.17282281     0.30300
H593        H  0.66153843  0.57982977  0.34284389     0.30400
H594        H  0.51949306  0.49335636  0.32430358     0.30600
Zr595      Zr  0.68070453  0.26146612  0.57429093     2.17500
O596        O  0.74892354  0.25964910  0.57465908    -0.51700
O597        O  0.67029527  0.22464779  0.63011856    -0.74900
O598        O  0.71223285  0.29630420  0.62184511    -0.81700
O599        O  0.67705532  0.19955809  0.48968768    -0.83500
O600        O  0.67820835  0.34753549  0.63610168    -0.79100
O601        O  0.70621978  0.20561749  0.54540551    -0.90700
O602        O  0.60769738  0.21782751  0.63785977    -0.76700
O603        O  0.62816490  0.28238026  0.60866672    -0.86200
O604        O  0.62918917  0.22626703  0.55216254    -0.85900
O605        O  0.67564966  0.32657719  0.56121844    -0.72600
O606        O  0.67628061  0.27530832  0.50938365    -0.84700
Zr607      Zr  0.56526418  0.32515011  0.50880985     2.26400
Zr608      Zr  0.62217830  0.34675299  0.59594865     2.06300
Zr609      Zr  0.62383540  0.24083841  0.48777980     2.10000
Zr610      Zr  0.57668522  0.24752154  0.58609222     1.78800
O611        O  0.65081584  0.23541134  0.42627586    -0.93600
O612        O  0.53995333  0.26625306  0.63961578    -0.41400
O613        O  0.57015617  0.26047154  0.52144799    -0.78000
O614        O  0.56970308  0.31146532  0.57386080    -0.96700
O615        O  0.61653014  0.36014675  0.53149210    -0.90000
O616        O  0.61780363  0.30508340  0.47401099    -0.92800
C617        C  0.64167787  0.21312801  0.64824966     1.00900
C618        C  0.70197498  0.19036189  0.51353413     1.13900
C619        C  0.70704976  0.32633824  0.63992772     1.04600
O620        O  0.59875344  0.34806019  0.65905951    -0.95000
O621        O  0.56525935  0.38465326  0.59718278    -0.90700
O622        O  0.53173261  0.36941514  0.54587190    -0.83900
C623        C  0.53613010  0.38703710  0.57631489     1.11300
O624        O  0.73472360  0.32553484  0.48605525    -0.97000
Zr625      Zr  0.66897033  0.33996717  0.49686781     1.88900
O626        O  0.57448126  0.38161427  0.47387518    -0.73600
O627        O  0.64082950  0.41123156  0.59597288    -0.52900
O628        O  0.70582017  0.39328287  0.51560512    -0.97500
O629        O  0.68246738  0.34021603  0.43076198    -0.54800
O630        O  0.63624539  0.39402165  0.47311094    -0.74100
C631        C  0.60202856  0.40287044  0.46657528     0.98200
O632        O  0.49812436  0.32304764  0.49682897    -0.62900
O633        O  0.59566209  0.17987643  0.48371719    -0.57700
O634        O  0.53997373  0.29687894  0.45278349    -0.94400
O635        O  0.57322600  0.24410932  0.44317318    -0.92900
O636        O  0.56082012  0.18275613  0.57831266    -0.93200
O637        O  0.50977882  0.23966977  0.57623520    -0.92000
C638        C  0.54680724  0.26678036  0.43521373     1.17100
H639        H  0.63308063  0.20024639  0.55619484     0.33000
H640        H  0.54708168  0.31808124  0.58675399     0.43900
H641        H  0.61404768  0.30920065  0.44791012     0.37400
H642        H  0.69791541  0.33941544  0.56901156     0.33900
H643        H  0.53461271  0.24299649  0.65281361     0.25700
H644        H  0.63998445  0.41881062  0.62226503     0.31600
H645        H  0.70896377  0.40791809  0.49273405     0.37500
H646        H  0.54392687  0.17712949  0.59917778     0.32000
H647        H  0.60783268  0.16807846  0.46215683     0.30800
H648        H  0.64564974  0.20972488  0.41852149     0.32500
H649        H  0.69846148  0.36212432  0.42703222     0.31500
H650        H  0.50189029  0.26197713  0.56250287     0.35500
H651        H  0.48636967  0.31852428  0.52113775     0.28200
H652        H  0.75592872  0.23562339  0.58563445     0.32500
H653        H  0.74588555  0.34802453  0.47536226     0.35300
H654        H  0.60544511  0.16614248  0.50530056     0.27900
H655        H  0.49081461  0.34854726  0.49024273     0.40800
H656        H  0.60069301  0.37421740  0.66666643     0.30800
H657        H  0.55795108  0.27932950  0.65579154     0.38500
H658        H  0.65861405  0.34685123  0.41851304     0.30300
H659        H  0.66772022  0.41083839  0.58966851     0.30400
H660        H  0.75638839  0.25791543  0.54835564     0.30600
Zr661      Zr  0.66917076  0.00898934  0.92452887     2.17500
O662        O  0.66599485  0.99484311  0.99033356    -0.51700
O663        O  0.61400415  0.97257866  0.91014876    -0.74900
O664        O  0.62106879  0.04411760  0.95531223    -0.81700
O665        O  0.75328405  0.94526726  0.91938460    -0.83500
O666        O  0.60865157  0.09752564  0.92477220    -0.79100
O667        O  0.69829078  0.95333131  0.94999635    -0.90700
O668        O  0.60787274  0.96917131  0.84771825    -0.76700
O669        O  0.63633924  0.03170711  0.87193267    -0.86200
O670        O  0.69455773  0.97649233  0.87329140    -0.85900
O671        O  0.68133413  0.07431065  0.92318601    -0.72600
O672        O  0.73452329  0.02409107  0.92501392    -0.84700
Zr673      Zr  0.73948481  0.07915278  0.81719105     2.26400
Zr674      Zr  0.64845916  0.09656405  0.86931068     2.06300
Zr675      Zr  0.75945629  0.99257205  0.87248210     2.10000
Zr676      Zr  0.66214951  0.99932092  0.82085331     1.78800
O677        O  0.81759103  0.98200004  0.90606288    -0.93600
O678        O  0.60940501  0.01770165  0.78220307    -0.41400
O679        O  0.72771012  0.01397314  0.81841845    -0.78000
O680        O  0.67397371  0.06387396  0.81717378    -0.96700
O681        O  0.71348028  0.11148069  0.86836074    -0.90000
O682        O  0.77172959  0.05731679  0.87045841    -0.92800
C683        C  0.59640896  0.96302137  0.88071550     1.00900
C684        C  0.72913615  0.93605760  0.94382377     1.13900
C685        C  0.60473649  0.07548823  0.95239940     1.04600
O686        O  0.58406800  0.09534048  0.84735286    -0.95000
O687        O  0.64934956  0.13487868  0.81303999    -0.90700
O688        O  0.70645932  0.12817693  0.78586325    -0.83900
C689        C  0.67347936  0.14192446  0.78753459     1.11300
O690        O  0.75018709  0.08040860  0.98810428    -0.97000
Zr691      Zr  0.74573411  0.08921442  0.92142317     1.88900
O692        O  0.77610970  0.13378666  0.83178653    -0.73600
O693        O  0.64478711  0.16091262  0.88836213    -0.52900
O694        O  0.72128584  0.14239014  0.95498933    -0.97500
O695        O  0.81017221  0.08215539  0.94252037    -0.54800
O696        O  0.77595021  0.14229945  0.89412232    -0.74100
C697        C  0.78431303  0.15206014  0.86115294     0.98200
O698        O  0.74653417  0.07817393  0.74994422    -0.62900
O699        O  0.76730445  0.93637209  0.83633733    -0.57700
O700        O  0.79959890  0.05491429  0.79634478    -0.94400
O701        O  0.81107038  0.00340940  0.83050229    -0.92900
O702        O  0.67166436  0.93446022  0.80615148    -0.93200
O703        O  0.67365816  0.99040224  0.75509963    -0.92000
C704        C  0.81977253  0.02704905  0.80562610     1.17100
H705        H  0.69094840  0.95024086  0.87572588     0.33000
H706        H  0.66240912  0.07142573  0.79427130     0.43900
H707        H  0.79809782  0.06255823  0.86914472     0.37400
H708        H  0.67330053  0.08634375  0.94556340     0.33900
H709        H  0.59945853  0.99431817  0.77206372     0.25700
H710        H  0.61848152  0.16803390  0.88352750     0.31600
H711        H  0.71501708  0.16069728  0.93567048     0.37500
H712        H  0.64742268  0.92612417  0.79588041     0.32000
H713        H  0.74725267  0.91974806  0.84494943     0.30800
H714        H  0.82984120  0.96136009  0.89277756     0.32500
H715        H  0.82558445  0.09496268  0.92391536     0.31500
H716        H  0.69274225  0.00907765  0.74885368     0.35500
H717        H  0.75467999  0.05281290  0.74371485     0.28200
H718        H  0.63925139  0.99106562  0.99621527     0.32500
H719        H  0.76436265  0.10187356  0.99754254     0.35300
H720        H  0.75974948  0.94323787  0.81091046     0.27900
H721        H  0.72080846  0.07943817  0.73981631     0.40800
H722        H  0.58611085  0.09246237  0.82021215     0.30800
H723        H  0.59007266  0.02603607  0.79991267     0.38500
H724        H  0.81594268  0.05568500  0.93891651     0.30300
H725        H  0.64689201  0.16040840  0.91564942     0.30400
H726        H  0.67313315  0.01787123  0.00322745     0.30600
Zr727      Zr  0.93502081  0.67611472  0.01163151     2.17500
O728        O  0.00279929  0.68015505  0.00568252    -0.51700
O729        O  0.92893183  0.61820689  0.97714571    -0.74900
O730        O  0.96750747  0.63248497  0.04996806    -0.81700
O731        O  0.92909973  0.75751638  0.94691161    -0.83500
O732        O  0.93159308  0.61705565  0.09938814    -0.79100
O733        O  0.96188669  0.70447197  0.95665866    -0.90700
O734        O  0.86743178  0.60571263  0.97203027    -0.76700
O735        O  0.88315772  0.64010347  0.03066068    -0.86200
O736        O  0.88450371  0.69577330  0.97361755    -0.85900
O737        O  0.92650501  0.68988593  0.07630500    -0.72600
O738        O  0.92788666  0.74072999  0.02494891    -0.84700
Zr739      Zr  0.81430751  0.73794045  0.07083974     2.26400
Zr740      Zr  0.87352219  0.65362447  0.09475277     2.06300
Zr741      Zr  0.87588281  0.75961038  0.98817428     2.10000
Zr742      Zr  0.83288098  0.65998146  0.99263436     1.78800
O743        O  0.90173707  0.82163168  0.98833312    -0.93600
O744        O  0.79269073  0.60821011  0.00832738    -0.41400
O745        O  0.82249444  0.72430902  0.00603000    -0.78000
O746        O  0.82269474  0.67351772  0.05617501    -0.96700
O747        O  0.86505395  0.71764405  0.10823871    -0.90000
O748        O  0.86623720  0.77415425  0.05209631    -0.92800
C749        C  0.90195900  0.59671194  0.96794410     1.00900
C750        C  0.95539558  0.73466054  0.93922218     1.13900
C751        C  0.96192721  0.61516229  0.08021974     1.04600
O752        O  0.85546372  0.58904801  0.09772994    -0.95000
O753        O  0.81346795  0.64912585  0.12813961    -0.90700
O754        O  0.77808359  0.69869867  0.11116300    -0.83900
C755        C  0.78285687  0.66819341  0.12846592     1.11300
O756        O  0.98244964  0.77059035  0.08178946    -0.97000
Zr757      Zr  0.91706251  0.75360421  0.08922302     1.88900
O758        O  0.82216654  0.77469675  0.12773319    -0.73600
O759        O  0.89090256  0.65888576  0.15963493    -0.52900
O760        O  0.95687075  0.73417105  0.14042913    -0.97500
O761        O  0.92543037  0.82034731  0.08963129    -0.54800
O762        O  0.88335241  0.77492734  0.14326714    -0.74100
C763        C  0.84895473  0.78190594  0.15047406     0.98200
O764        O  0.74657533  0.74430303  0.07623100    -0.62900
O765        O  0.85187924  0.76528009  0.92533701    -0.57700
O766        O  0.78812219  0.79099322  0.03750125    -0.94400
O767        O  0.82261554  0.80036143  0.98564989    -0.92900
O768        O  0.82649988  0.66502112  0.92569718    -0.93200
O769        O  0.76737989  0.66444104  0.97461281    -0.92000
C770        C  0.79498168  0.80759568  0.00689944     1.17100
H771        H  0.88988256  0.69187274  0.94773953     0.33000
H772        H  0.80067633  0.65938364  0.06142302     0.43900
H773        H  0.86125276  0.80009412  0.05556150     0.37400
H774        H  0.94848007  0.68357978  0.09041200     0.33900
H775        H  0.79494217  0.59094940  0.98719909     0.25700
H776        H  0.89177069  0.63313699  0.16856112     0.31600
H777        H  0.95548832  0.75463189  0.15852422     0.37500
H778        H  0.84361478  0.64612494  0.91541356     0.32000
H779        H  0.86350801  0.78798479  0.91557534     0.30800
H780        H  0.90260657  0.82884422  0.96196586     0.32500
H781        H  0.94222052  0.82518652  0.11090572     0.31500
H782        H  0.75687354  0.68381364  0.99090989     0.35500
H783        H  0.73672625  0.74447961  0.05062155     0.28200
H784        H  0.01161604  0.65496228  0.99962513     0.32500
H785        H  0.99379199  0.74953046  0.06840027     0.35300
H786        H  0.86381029  0.74501169  0.91126739     0.27900
H787        H  0.74193859  0.76943403  0.08595694     0.40800
H788        H  0.86123686  0.57903537  0.07289192     0.30800
H789        H  0.80580954  0.59564925  0.02889380     0.38500
H790        H  0.90108776  0.83073216  0.09749280     0.30300
H791        H  0.91737061  0.66682153  0.15933315     0.30400
H792        H  0.01241208  0.68522606  0.03088307     0.30600
C793        C  0.77394402  0.87200756  0.01375329    -0.06200
C794        C  0.77042998  0.83821435  0.99527641    -0.00200
C795        C  0.74801165  0.83581565  0.96305459    -0.08800
C796        C  0.73182738  0.86825810  0.94877647    -0.06200
C797        C  0.73806994  0.90265256  0.96548442    -0.00300
C798        C  0.75842241  0.90457380  0.99906192    -0.08700
C799        C  0.76570038  0.94119874  0.01792356     0.61700
H800        H  0.79126905  0.87313771  0.03834439     0.12400
H801        H  0.71633386  0.86736952  0.92301070     0.12400
C802        C  0.74254631  0.79931817  0.94318050     0.61900
F803        F  0.78345713  0.93671772  0.05169481    -0.23300
F804        F  0.73221811  0.95928802  0.02406775    -0.20600
F805        F  0.78813859  0.96273107  0.99567570    -0.20300
F806        F  0.73096926  0.77278566  0.96802733    -0.20300
F807        F  0.77581494  0.78816810  0.92733618    -0.20700
F808        F  0.71591218  0.80189024  0.91545813    -0.23300
C809        C  0.67090834  0.21291648  0.71066988    -0.06200
C810        C  0.64813720  0.19484299  0.68451928    -0.00200
C811        C  0.63121351  0.16082025  0.69412691    -0.08800
C812        C  0.63860269  0.14567661  0.72920361    -0.06200
C813        C  0.66173400  0.16346273  0.75491935    -0.00300
C814        C  0.67771613  0.19784703  0.74600714    -0.08700
C815        C  0.70094533  0.21864650  0.77428419     0.61700
H816        H  0.68303018  0.23921008  0.70332185     0.12400
H817        H  0.62708530  0.11911498  0.73658787     0.12400
C818        C  0.60614817  0.14000313  0.66738010     0.61900
F819        F  0.71042250  0.25344369  0.76194457    -0.23300
F820        F  0.73352395  0.19944771  0.78187484    -0.20600
F821        F  0.68067243  0.22266191  0.80656816    -0.20300
F822        F  0.62375699  0.13606637  0.63358467    -0.20300
F823        F  0.57299161  0.15909204  0.66276333    -0.20700
F824        F  0.59751493  0.10511210  0.68020367    -0.23300
C825        C  0.55503504  0.49265083  0.43356705    -0.06200
C826        C  0.58487664  0.51034976  0.41590765    -0.00200
C827        C  0.62064423  0.49345281  0.41643941    -0.08800
C828        C  0.62483730  0.45906101  0.43408443    -0.06200
C829        C  0.59443678  0.44011488  0.44993144    -0.00300
C830        C  0.55862176  0.45768019  0.44988101    -0.08700
C831        C  0.52373576  0.44027412  0.46625071     0.61700
H832        H  0.52794745  0.50606291  0.43291719     0.12400
H833        H  0.65206191  0.44598613  0.43423405     0.12400
C834        C  0.65377496  0.51021519  0.39655146     0.61900
F835        F  0.49296121  0.46347068  0.46456112    -0.23300
F836        F  0.52986948  0.43212960  0.50301015    -0.20600
F837        F  0.51466039  0.40862806  0.44687224    -0.20300
F838        F  0.66190759  0.54434403  0.41155834    -0.20300
F839        F  0.64538407  0.51388838  0.35941063    -0.20700
F840        F  0.68558298  0.48854185  0.39947852    -0.23300
C841        C  0.68286481  0.65298243  0.15899138    -0.06200
C842        C  0.68774894  0.64559373  0.19654920    -0.00200
C843        C  0.72448643  0.64029326  0.21072396    -0.08800
C844        C  0.75516433  0.64540875  0.18688792    -0.06200
C845        C  0.75017021  0.65476364  0.14959901    -0.00300
C846        C  0.71325211  0.65589578  0.13485350    -0.08700
C847        C  0.70369865  0.65792821  0.09399014     0.61700
H848        H  0.65466718  0.65502985  0.14797333     0.12400
H849        H  0.78333370  0.64356349  0.19791906     0.12400
C850        C  0.73327727  0.62980202  0.25035569     0.61900
F851        F  0.68076688  0.62858543  0.08487969    -0.23300
F852        F  0.73453796  0.65590750  0.07134487    -0.20600
F853        F  0.68467654  0.69038433  0.08685413    -0.20300
F854        F  0.74834198  0.59465946  0.25083216    -0.20300
F855        F  0.70231103  0.63048138  0.27308091    -0.20700
F856        F  0.75941534  0.65400682  0.26469371    -0.23300
C857        C  0.46835398  0.39111811  0.58374470    -0.06200
C858        C  0.50315010  0.40835008  0.58866847    -0.00200
C859        C  0.50458301  0.44502641  0.60200233    -0.08800
C860        C  0.47058533  0.46316847  0.61009460    -0.06200
C861        C  0.43590709  0.44604753  0.60379688    -0.00300
C862        C  0.43462166  0.40956864  0.59024055    -0.08700
C863        C  0.39780536  0.39025189  0.58227294     0.61700
H864        H  0.46779157  0.36297040  0.57374120     0.12400
H865        H  0.47072088  0.49129317  0.62020795     0.12400
C866        C  0.54143301  0.46528401  0.60590808     0.61900
F867        F  0.40308067  0.35389789  0.57173926    -0.23300
F868        F  0.37928554  0.40803517  0.55382484    -0.20600
F869        F  0.37564092  0.39060021  0.61352257    -0.20300
F870        F  0.56025740  0.46471034  0.57253960    -0.20300
F871        F  0.56322967  0.44852138  0.63267143    -0.20700
F872        F  0.53623257  0.50173270  0.61609742    -0.23300
C873        C  0.39464125  0.61697476  0.48420305    -0.06200
C874        C  0.41037242  0.59026338  0.50753864    -0.00200
C875        C  0.44268522  0.57071973  0.49613597    -0.08800
C876        C  0.45769128  0.57812847  0.46100981    -0.06200
C877        C  0.44163348  0.60446842  0.43728576    -0.00300
C878        C  0.40960867  0.62445765  0.44905804    -0.08700
C879        C  0.39035344  0.65250467  0.42430263     0.61700
H880        H  0.36948561  0.63100233  0.49326461     0.12400
H881        H  0.48251059  0.56357634  0.45188209     0.12400
C882        C  0.46184771  0.54302795  0.52139466     0.61900
F883        F  0.35635380  0.66386720  0.43865732    -0.23300
F884        F  0.38368993  0.63730358  0.38979485    -0.20600
F885        F  0.41269715  0.68327721  0.42070085    -0.20300
F886        F  0.43872054  0.51328264  0.52776546    -0.20300
F887        F  0.47043404  0.55976668  0.55472356    -0.20700
F888        F  0.49478467  0.52979384  0.50625918    -0.23300
C889        C  0.52616466  0.71820064  0.12420632    -0.06200
C890        C  0.51041822  0.72735131  0.15847436    -0.00200
C891        C  0.48274517  0.75520025  0.16061711    -0.08800
C892        C  0.46890620  0.77057857  0.12760860    -0.06200
C893        C  0.48208502  0.75875132  0.09307570    -0.00300
C894        C  0.51232648  0.73361752  0.09118353    -0.08700
C895        C  0.52867844  0.72218240  0.05426528     0.61700
H896        H  0.54771885  0.69717115  0.12332167     0.12400
H897        H  0.44586850  0.79002668  0.12841740     0.12400
C898        C  0.46729987  0.76763748  0.19764166     0.61900
F899        F  0.55962157  0.69956284  0.05855582    -0.23300
F900        F  0.53965130  0.75316747  0.03499656    -0.20600
F901        F  0.50217605  0.70337192  0.03378197    -0.20300
F902        F  0.49642590  0.77824063  0.22050974    -0.20300
F903        F  0.44805631  0.73908363  0.21409162    -0.20700
F904        F  0.44312416  0.79728110  0.19394520    -0.23300
C905        C  0.55884004  0.90611438  0.87738357    -0.06200
C906        C  0.56031034  0.94382138  0.88529553    -0.00200
C907        C  0.52789511  0.96214237  0.89850957    -0.08800
C908        C  0.49520621  0.94151038  0.90497205    -0.06200
C909        C  0.49455144  0.90330682  0.89943702    -0.00300
C910        C  0.52661220  0.88529772  0.88490001    -0.08700
C911        C  0.52706721  0.84400295  0.87837695     0.61700
H912        H  0.58383362  0.89276621  0.86697606     0.12400
H913        H  0.47062676  0.95467660  0.91648566     0.12400
C914        C  0.52830163  0.00305419  0.90691797     0.61900
F915        F  0.55978627  0.83240411  0.86154920    -0.23300
F916        F  0.49745089  0.83435736  0.85574335    -0.20600
F917        F  0.52405561  0.82579396  0.91173484    -0.20300
F918        F  0.54106144  0.02238037  0.87655577    -0.20300
F919        F  0.55161676  0.00961510  0.93668977    -0.20700
F920        F  0.49300975  0.01614647  0.91565729    -0.23300
C921        C  0.32109937  0.70710370  0.79169228    -0.06200
C922        C  0.35276863  0.69443381  0.81115956    -0.00200
C923        C  0.37655296  0.66790994  0.79399260    -0.08800
C924        C  0.36738103  0.65498096  0.75825110    -0.06200
C925        C  0.33506568  0.66676000  0.73959810    -0.00300
C926        C  0.31171105  0.69360725  0.75630346    -0.08700
C927        C  0.27750801  0.70860979  0.73630156     0.61700
H928        H  0.30349550  0.72780028  0.80452261     0.12400
H929        H  0.38438621  0.63386362  0.74529509     0.12400
C930        C  0.41022241  0.65146424  0.81382801     0.61900
F931        F  0.26137381  0.73782930  0.75515085    -0.23300
F932        F  0.25073506  0.68148600  0.73246343    -0.20600
F933        F  0.28789410  0.72091604  0.70168940    -0.20300
F934        F  0.39993483  0.63951195  0.84863890    -0.20300
F935        F  0.43816873  0.67751392  0.81696121    -0.20700
F936        F  0.42485589  0.62150563  0.79496259    -0.23300
C937        C  0.96133107  0.73752847  0.87191692    -0.06200
C938        C  0.97791541  0.74361067  0.90646539    -0.00200
C939        C  0.01189515  0.76328464  0.90892712    -0.08800
C940        C  0.02638165  0.77962673  0.87661401    -0.06200
C941        C  0.00771539  0.77632478  0.84253450    -0.00300
C942        C  0.97594689  0.75330572  0.83965917    -0.08700
C943        C  0.95703312  0.74625418  0.80273606     0.61700
H944        H  0.93550720  0.72201163  0.87072140     0.12400
H945        H  0.05106412  0.79679544  0.87813065     0.12400
C946        C  0.03174403  0.76773136  0.94574875     0.61900
F947        F  0.92968177  0.71946734  0.80537471    -0.23300
F948        F  0.98325184  0.73435629  0.77729138    -0.20600
F949        F  0.94044044  0.77826530  0.79007191    -0.20300
F950        F  0.03948101  0.73333585  0.96031133    -0.20300
F951        F  0.00925021  0.78703368  0.97013755    -0.20700
F952        F  0.06518108  0.78647075  0.94214243    -0.23300
C953        C  0.91845273  0.99643936  0.78803531    -0.06200
C954        C  0.91562931  0.98467121  0.75123794    -0.00200
C955        C  0.88364383  0.99459428  0.73016802    -0.08800
C956        C  0.85364355  0.01231528  0.74822911    -0.06200
C957        C  0.85529211  0.02054206  0.78612171    -0.00300
C958        C  0.88918126  0.01498508  0.80565012    -0.08700
C959        C  0.89576528  0.02711286  0.84522662     0.61700
H960        H  0.94352295  0.98996235  0.80372734     0.12400
H961        H  0.82766131  0.01735282  0.73359463     0.12400
C962        C  0.88020934  0.98439569  0.68971428     0.61900
F963        F  0.92919528  0.04614108  0.84735548    -0.23300
F964        F  0.89807233  0.99638989  0.86766845    -0.20600
F965        F  0.86795292  0.05013102  0.85828059    -0.20300
F966        F  0.88342298  0.94659410  0.68579141    -0.20300
F967        F  0.90814526  0.00170097  0.66997696    -0.20700
F968        F  0.84622210  0.99517956  0.67480093    -0.23300
C969        C  0.13397578  0.72370816  0.65094622    -0.06200
C970        C  0.15538699  0.75579228  0.65490973    -0.00200
C971        C  0.19465492  0.75405852  0.65130345    -0.08800
C972        C  0.21147696  0.71944461  0.64467929    -0.06200
C973        C  0.18995739  0.68716953  0.64216538    -0.00300
C974        C  0.15064957  0.68930585  0.64454129    -0.08700
C975        C  0.12665642  0.65516253  0.64116052     0.61700
H976        H  0.10390205  0.72574620  0.65403536     0.12400
H977        H  0.24156392  0.71714344  0.64222491     0.12400
C978        C  0.21834199  0.78827778  0.65607567     0.61900
F979        F  0.08891197  0.66315443  0.64423935    -0.23300
F980        F  0.13616608  0.63080980  0.66884846    -0.20600
F981        F  0.13259534  0.63862081  0.60723076    -0.20300
F982        F  0.21322150  0.80245721  0.69121465    -0.20300
F983        F  0.20785323  0.81446484  0.63029970    -0.20700
F984        F  0.25601489  0.78082528  0.65139890    -0.23300
C985        C  0.18457170  0.83626396  0.83770677    -0.06200
C986        C  0.18912043  0.84996724  0.80194915    -0.00200
C987        C  0.22574499  0.85687913  0.78853067    -0.08800
C988        C  0.25656263  0.84848511  0.81138909    -0.06200
C989        C  0.25196878  0.83391420  0.84696830    -0.00300
C990        C  0.21506909  0.82966549  0.86119237    -0.08700
C991        C  0.20538889  0.81939030  0.90080759     0.61700
H992        H  0.15645117  0.83184041  0.84798042     0.12400
H993        H  0.28463595  0.85243435  0.80087768     0.12400
C994        C  0.23434111  0.87280999  0.75076702     0.61900
F995        F  0.17834465  0.84329620  0.91415051    -0.23300
F996        F  0.23525696  0.82149795  0.92485819    -0.20600
F997        F  0.19107080  0.78404542  0.90131577    -0.20300
F998        F  0.24854623  0.90792163  0.75540253    -0.20300
F999        F  0.20351039  0.87472199  0.72780057    -0.20700
F1000       F  0.26101949  0.85126523  0.73331617    -0.23300
C1001       C  0.70842437  0.78971108  0.33051761    -0.06200
C1002       C  0.69161702  0.81368774  0.35622318    -0.00200
C1003       C  0.66078992  0.80097222  0.37735361    -0.08800
C1004       C  0.64676171  0.76533753  0.37048945    -0.06200
C1005       C  0.66275533  0.74212587  0.34385325    -0.00300
C1006       C  0.69477356  0.75384069  0.32437961    -0.08700
C1007       C  0.71505462  0.72777297  0.29839599     0.61700
H1008       H  0.73267421  0.79921935  0.31544458     0.12400
H1009       H  0.62200378  0.75583859  0.38473912     0.12400
C1010       C  0.64164759  0.82523812  0.40588034     0.61900
F1011       F  0.74806600  0.74274820  0.28552051    -0.23300
F1012       F  0.69278671  0.71940668  0.26824926    -0.20600
F1013       F  0.72367298  0.69569102  0.31718676    -0.20300
F1014       F  0.63131617  0.85838203  0.38996182    -0.20300
F1015       F  0.66563643  0.83168744  0.43516866    -0.20700
F1016       F  0.60977959  0.80891646  0.41993925    -0.23300
C1017       C  0.80123723  0.81372937  0.24081686    -0.06200
C1018       C  0.83021253  0.83360893  0.25807595    -0.00200
C1019       C  0.86550555  0.83509798  0.24044243    -0.08800
C1020       C  0.86997358  0.81801505  0.20562102    -0.06200
C1021       C  0.84064837  0.79919759  0.18753395    -0.00300
C1022       C  0.80573356  0.79618420  0.20616890    -0.08700
C1023       C  0.77322623  0.77443251  0.19018414     0.61700
H1024       H  0.77431466  0.81299405  0.25442996     0.12400
H1025       H  0.89669664  0.81996245  0.19182235     0.12400
C1026       C  0.89808379  0.85570157  0.25756349     0.61900
F1027       F  0.74367350  0.77195737  0.21465479    -0.23300
F1028       F  0.78480310  0.73894943  0.18201226    -0.20600
F1029       F  0.76005077  0.79147201  0.15855887    -0.20300
F1030       F  0.90736873  0.83967337  0.29099015    -0.20300
F1031       F  0.88839295  0.89222414  0.26301512    -0.20700
F1032       F  0.92953345  0.85479157  0.23535728    -0.23300
C1033       C  0.88614870  0.91658730  0.52900588    -0.06200
C1034       C  0.90277123  0.90540468  0.49552847    -0.00200
C1035       C  0.93680151  0.88531797  0.49682688    -0.08800
C1036       C  0.95443053  0.87999886  0.53157917    -0.06200
C1037       C  0.93864110  0.89362290  0.56456715    -0.00300
C1038       C  0.90328259  0.91081174  0.56337694    -0.08700
C1039       C  0.88366679  0.92287922  0.59843537     0.61700
H1040       H  0.85931470  0.93044269  0.52806931     0.12400
H1041       H  0.98096574  0.86562342  0.53324424     0.12400
C1042       C  0.95438297  0.86992585  0.46197781     0.61900
F1043       F  0.84775792  0.93558036  0.59168125    -0.23300
F1044       F  0.90373645  0.95106007  0.61457462    -0.20600
F1045       F  0.88132599  0.89350881  0.62266675    -0.20300
F1046       F  0.96000553  0.89789866  0.43674280    -0.20300
F1047       F  0.93097391  0.84370616  0.44665573    -0.20700
F1048       F  0.98855259  0.85334263  0.46904034    -0.23300
C1049       C  0.76499782  0.13084066  0.45487851    -0.06200
C1050       C  0.75978130  0.09633936  0.47128430    -0.00200
C1051       C  0.74055693  0.09386359  0.50531404    -0.08800
C1052       C  0.72433248  0.12607196  0.52037714    -0.06200
C1053       C  0.72748158  0.16024607  0.50248876    -0.00300
C1054       C  0.74995676  0.16309730  0.47038842    -0.08700
C1055       C  0.75813689  0.19918513  0.45086798     0.61700
H1056       H  0.77994682  0.13244629  0.42887550     0.12400
H1057       H  0.70734282  0.12443213  0.54506031     0.12400
C1058       C  0.73632474  0.05712260  0.52469784     0.61900
F1059       F  0.79626171  0.20211390  0.44519760    -0.23300
F1060       F  0.74693172  0.22979715  0.47084403    -0.20600
F1061       F  0.74020970  0.19949410  0.41695140    -0.20300
F1062       F  0.77135260  0.04327118  0.53321441    -0.20300
F1063       F  0.71791204  0.03241306  0.50191912    -0.20700
F1064       F  0.71626573  0.06043586  0.55721658    -0.23300
C1065       C  0.16507207  0.47010164  0.74846956    -0.06200
C1066       C  0.15984877  0.50267099  0.72821776    -0.00200
C1067       C  0.12373520  0.51847403  0.72545135    -0.08800
C1068       C  0.09331640  0.49953844  0.74090501    -0.06200
C1069       C  0.09835318  0.46572679  0.75887585    -0.00300
C1070       C  0.13471619  0.45125037  0.76402679    -0.08700
C1071       C  0.14106613  0.41551855  0.78491011     0.61700
H1072       H  0.19296153  0.45847105  0.75018712     0.12400
H1073       H  0.06513806  0.51010224  0.73761533     0.12400
C1074       C  0.11738178  0.55436117  0.70507972     0.61900
F1075       F  0.17866280  0.40654856  0.78726457    -0.23300
F1076       F  0.12288234  0.38692537  0.76714938    -0.20600
F1077       F  0.12723205  0.41896670  0.82043361    -0.20300
F1078       F  0.12827870  0.55071486  0.66856548    -0.20300
F1079       F  0.13816988  0.58170407  0.72198538    -0.20700
F1080       F  0.08020406  0.56506883  0.70558611    -0.23300
C1081       C  0.86039489  0.22123282  0.84197717    -0.06200
C1082       C  0.84115732  0.25486114  0.84581244    -0.00200
C1083       C  0.80332552  0.25477438  0.85726560    -0.08800
C1084       C  0.78553630  0.22043169  0.86242371    -0.06200
C1085       C  0.80467439  0.18696435  0.85670561    -0.00300
C1086       C  0.84285196  0.18724417  0.84716400    -0.08700
C1087       C  0.86508569  0.15177906  0.84283252     0.61700
H1088       H  0.88955459  0.22183431  0.83400345     0.12400
H1089       H  0.75639992  0.21936863  0.87045009     0.12400
C1090       C  0.78193952  0.29036040  0.86363676     0.61900
F1091       F  0.90222267  0.15844730  0.83452307    -0.23300
F1092       F  0.85011819  0.13068494  0.81461423    -0.20600
F1093       F  0.86392398  0.13207946  0.87545562    -0.20300
F1094       F  0.78130857  0.31112242  0.83163712    -0.20300
F1095       F  0.79908408  0.31031924  0.89147364    -0.20700
F1096       F  0.74533944  0.28386276  0.87415292    -0.23300
C1097       C  0.95050588  0.50716276  0.93481663    -0.06200
C1098       C  0.92033100  0.48773807  0.91917729    -0.00200
C1099       C  0.88407892  0.50329220  0.92156042    -0.08800
C1100       C  0.87973196  0.53834939  0.93807862    -0.06200
C1101       C  0.91022059  0.55897242  0.95202249    -0.00300
C1102       C  0.94653774  0.54247954  0.95079113    -0.08700
C1103       C  0.98152480  0.56156716  0.96528965     0.61700
H1104       H  0.97803133  0.49483239  0.93283196     0.12400
H1105       H  0.85202864  0.55031243  0.93924500     0.12400
C1106       C  0.85023657  0.48384536  0.90536150     0.61900
F1107       F  0.01322011  0.53985776  0.96156717    -0.23300
F1108       F  0.97745435  0.56946446  0.00245672    -0.20600
F1109       F  0.98770730  0.59365878  0.94569250    -0.20300
F1110       F  0.84570823  0.45008826  0.92240496    -0.20300
F1111       F  0.85509278  0.47868495  0.86777918    -0.20700
F1112       F  0.81762915  0.50384483  0.91042891    -0.23300
C1113       C  0.79034217  0.37449985  0.68442400    -0.06200
C1114       C  0.80741120  0.34487646  0.70324524    -0.00200
C1115       C  0.78809951  0.31056636  0.70485784    -0.08800
C1116       C  0.75369530  0.30719074  0.68621284    -0.06200
C1117       C  0.73785834  0.33619792  0.66580977    -0.00300
C1118       C  0.75600185  0.37083907  0.66560897    -0.08700
C1119       C  0.74020286  0.40345984  0.64451392     0.61700
H1120       H  0.80471820  0.40067919  0.68360562     0.12400
H1121       H  0.73933132  0.28095549  0.68606371     0.12400
C1122       C  0.80294633  0.27733682  0.72594905     0.61900
F1123       F  0.76307009  0.43411702  0.64696130    -0.23300
F1124       F  0.70572359  0.41294115  0.65890557    -0.20600
F1125       F  0.73645990  0.39443201  0.60755001    -0.20300
F1126       F  0.80960019  0.28705553  0.76230117    -0.20300
F1127       F  0.83549755  0.26453215  0.70982491    -0.20700
F1128       F  0.77786651  0.24836376  0.72600118    -0.23300
C1129       C  0.04142465  0.42091699  0.96021841    -0.06200
C1130       C  0.05679211  0.39256084  0.93839252    -0.00200
C1131       C  0.08671653  0.37101609  0.95304462    -0.08800
C1132       C  0.10111096  0.38010161  0.98823583    -0.06200
C1133       C  0.08697664  0.40977814  0.00884179    -0.00300
C1134       C  0.05603059  0.42996066  0.99520411    -0.08700
C1135       C  0.03878812  0.46131648  0.01719966     0.61700
H1136       H  0.01808533  0.43661003  0.94930336     0.12400
H1137       H  0.12489221  0.36515845  0.99930022     0.12400
C1138       C  0.10492705  0.33992531  0.93126322     0.61900
F1139       F  0.00404155  0.47114501  0.00335642    -0.23300
F1140       F  0.06181502  0.49179758  0.01573217    -0.20600
F1141       F  0.03414162  0.45090725  0.05366619    -0.20300
F1142       F  0.11608299  0.35278509  0.89709238    -0.20300
F1143       F  0.08000071  0.31121728  0.92669240    -0.20700
F1144       F  0.13622768  0.32596199  0.94907009    -0.23300
C1145       C  0.02877240  0.53999399  0.11317825    -0.06200
C1146       C  0.06302770  0.55868190  0.10986831    -0.00200
C1147       C  0.06332704  0.59647598  0.10077538    -0.08800
C1148       C  0.02918664  0.61388994  0.09300033    -0.06200
C1149       C  0.99495181  0.59495426  0.09436394    -0.00300
C1150       C  0.99438137  0.55765588  0.10550443    -0.08700
C1151       C  0.95799430  0.53642761  0.10752992     0.61700
H1152       H  0.02931563  0.51113082  0.12075885     0.12400
H1153       H  0.02897044  0.64268946  0.08518330     0.12400
C1154       C  0.09938822  0.61852302  0.10017792     0.61900
F1155       F  0.96370826  0.50019030  0.11803226    -0.23300
F1156       F  0.94074043  0.53649050  0.07324876    -0.20600
F1157       F  0.93452631  0.55267619  0.13318626    -0.20300
F1158       F  0.12306657  0.60505966  0.07315002    -0.20300
F1159       F  0.11687347  0.61595827  0.13420304    -0.20700
F1160       F  0.09289683  0.65548495  0.09303778    -0.23300
C1161       C  0.33811871  0.51679895  0.25402741    -0.06200
C1162       C  0.34397201  0.49138289  0.22537268    -0.00200
C1163       C  0.38072978  0.48309864  0.21372654    -0.08800
C1164       C  0.41069151  0.50265299  0.22947038    -0.06200
C1165       C  0.40464535  0.52961736  0.25663313    -0.00300
C1166       C  0.36811665  0.53612395  0.27010720    -0.08700
C1167       C  0.36088741  0.56446806  0.30014851     0.61700
H1168       H  0.30963869  0.52293723  0.26216470     0.12400
H1169       H  0.43893500  0.49807018  0.21967556     0.12400
C1170       C  0.38779144  0.45434380  0.18410914     0.61900
F1171       F  0.32311659  0.56822754  0.30761955    -0.23300
F1172       F  0.37426798  0.59846941  0.28932873    -0.20600
F1173       F  0.37886232  0.55376963  0.33229142    -0.20300
F1174       F  0.37268628  0.46583637  0.15082261    -0.20300
F1175       F  0.37119608  0.42163311  0.19450015    -0.20700
F1176       F  0.42559447  0.44781453  0.17906260    -0.23300
C1177       C  0.23530306  0.62848890  0.04584739    -0.06200
C1178       C  0.24251533  0.59343828  0.03109508    -0.00200
C1179       C  0.26540318  0.58972839  0.99943057    -0.08800
C1180       C  0.28250450  0.62145059  0.98490619    -0.06200
C1181       C  0.27801326  0.65596755  0.00188592    -0.00300
C1182       C  0.25273280  0.66006964  0.03162527    -0.08700
C1183       C  0.24464340  0.69764075  0.04835649     0.61700
H1184       H  0.21766050  0.63061881  0.07007093     0.12400
H1185       H  0.30156090  0.61914498  0.96178579     0.12400
C1186       C  0.27356828  0.55218088  0.98268792     0.61900
F1187       F  0.21645343  0.69607930  0.07446621    -0.23300
F1188       F  0.23349307  0.72168032  0.02078232    -0.20600
F1189       F  0.27638549  0.71126782  0.06537182    -0.20300
F1190       F  0.29217276  0.53047288  0.00816330    -0.20300
F1191       F  0.29564945  0.55477201  0.95142528    -0.20700
F1192       F  0.24046066  0.53519869  0.97280712    -0.23300
C1193       C  0.25829023  0.36895197  0.55307601    -0.06200
C1194       C  0.25952909  0.40182944  0.53285985    -0.00200
C1195       C  0.24583750  0.40225378  0.49610915    -0.08800
C1196       C  0.22816315  0.37038209  0.48196800    -0.06200
C1197       C  0.22466817  0.33824603  0.50331753    -0.00300
C1198       C  0.24242598  0.33669408  0.53844859    -0.08700
C1199       C  0.24564227  0.30199346  0.56165439     0.61700
H1200       H  0.26933457  0.36864065  0.58104494     0.12400
H1201       H  0.21526556  0.37095439  0.45484796     0.12400
C1202       C  0.24881905  0.43662076  0.47264410     0.61900
F1203       F  0.28235098  0.29761312  0.57311277    -0.23300
F1204       F  0.23575953  0.27045695  0.54253175    -0.20600
F1205       F  0.22316796  0.30537408  0.59252562    -0.20300
F1206       F  0.28607888  0.44554712  0.46842457    -0.20300
F1207       F  0.23030079  0.46562103  0.48953422    -0.20700
F1208       F  0.23356698  0.43155773  0.43780745    -0.23300
C1209       C  0.01166374  0.24441708  0.65927234    -0.06200
C1210       C  0.98735899  0.27441975  0.65401903    -0.00200
C1211       C  0.97619098  0.28407237  0.61772611    -0.08800
C1212       C  0.99260784  0.26552276  0.58755033    -0.06200
C1213       C  0.01925357  0.23753948  0.59277037    -0.00300
C1214       C  0.02752815  0.22539093  0.62904111    -0.08700
C1215       C  0.05341858  0.19285979  0.63553625     0.61700
H1216       H  0.01935570  0.23701099  0.68727873     0.12400
H1217       H  0.98657334  0.27436904  0.55957009     0.12400
C1218       C  0.94822502  0.31482759  0.61099459     0.61900
F1219       F  0.05726120  0.18496670  0.67279309    -0.23300
F1220       F  0.08849506  0.20015620  0.62142459    -0.20600
F1221       F  0.03894436  0.16207470  0.61807457    -0.20300
F1222       F  0.96324206  0.34802420  0.62235220    -0.20300
F1223       F  0.91587427  0.30808682  0.63069898    -0.20700
F1224       F  0.93876803  0.31772698  0.57395640    -0.23300
C1225       C  0.94956979  0.07923494  0.37045601    -0.06200
C1226       C  0.94144739  0.04735181  0.39070180    -0.00200
C1227       C  0.96929318  0.03212465  0.41418186    -0.08800
C1228       C  0.00218192  0.05245987  0.42084267    -0.06200
C1229       C  0.00896594  0.08589552  0.40265331    -0.00300
C1230       C  0.98323809  0.09854787  0.37563399    -0.08700
C1231       C  0.99051471  0.13325040  0.35356673     0.61700
H1232       H  0.92868146  0.08965347  0.35138572     0.12400
H1233       H  0.02241182  0.04276850  0.44098484     0.12400
C1234       C  0.96490563  0.99420334  0.43123468     0.61900
F1235       F  0.96395150  0.13854551  0.32617493    -0.23300
F1236       F  0.02505671  0.13084050  0.33667555    -0.20600
F1237       F  0.98976494  0.16348610  0.37680795    -0.20300
F1238       F  0.99893160  0.98034501  0.44323606    -0.20300
F1239       F  0.95082776  0.96974897  0.40533062    -0.20700
F1240       F  0.94085164  0.99609066  0.46102021    -0.23300
C1241       C  0.12944997  0.34981496  0.26236223    -0.06200
C1242       C  0.15902480  0.33552683  0.24136391    -0.00200
C1243       C  0.17905700  0.30458532  0.25454175    -0.08800
C1244       C  0.17032912  0.29026895  0.28964976    -0.06200
C1245       C  0.14171374  0.30544375  0.31163540    -0.00300
C1246       C  0.12000101  0.33510705  0.29720647    -0.08700
C1247       C  0.08799627  0.35232591  0.31875972     0.61700
H1248       H  0.11461249  0.37361092  0.25168915     0.12400
H1249       H  0.18589364  0.26688181  0.30022750     0.12400
C1250       C  0.20859180  0.28619160  0.23079981     0.61900
F1251       F  0.07318259  0.38281214  0.30091595    -0.23300
F1252       F  0.10053064  0.36356738  0.35315360    -0.20600
F1253       F  0.05950021  0.32703862  0.32286072    -0.20300
F1254       F  0.23843000  0.30969211  0.22556627    -0.20300
F1255       F  0.19303481  0.27740456  0.19688261    -0.20700
F1256       F  0.22204766  0.25408480  0.24667597    -0.23300
C1257       C  0.11485421  0.00877516  0.59088276    -0.06200
C1258       C  0.08240245  0.98936857  0.58129208    -0.00200
C1259       C  0.05753050  0.00475850  0.55483113    -0.08800
C1260       C  0.06634993  0.03905477  0.53870178    -0.06200
C1261       C  0.09840172  0.05918884  0.54896270    -0.00300
C1262       C  0.12300804  0.04377077  0.57590296    -0.08700
C1263       C  0.15663210  0.06472722  0.59062402     0.61700
H1264       H  0.13287660  0.99705641  0.61193788     0.12400
H1265       H  0.04779805  0.05067943  0.51806034     0.12400
C1266       C  0.02184531  0.98494978  0.54347170     0.61900
F1267       F  0.17195629  0.04798923  0.62152489    -0.23300
F1268       F  0.14606661  0.10005011  0.60074364    -0.20600
F1269       F  0.18404278  0.06627561  0.56381339    -0.20300
F1270       F  0.99701588  0.98386409  0.57261301    -0.20300
F1271       F  0.03019797  0.94931845  0.53251518    -0.20700
F1272       F  0.00404238  0.00252970  0.51444845    -0.23300
C1273       C  0.37420062  0.95357015  0.06880576    -0.06200
C1274       C  0.40395330  0.93689901  0.04932122    -0.00200
C1275       C  0.43803005  0.95693249  0.04574227    -0.08800
C1276       C  0.44111980  0.99167500  0.06294015    -0.06200
C1277       C  0.41196488  0.00743939  0.08363982    -0.00300
C1278       C  0.37763500  0.98825654  0.08626723    -0.08700
C1279       C  0.34524076  0.00342195  0.10865478     0.61700
H1280       H  0.34813191  0.93871274  0.07114399     0.12400
H1281       H  0.46724864  0.00660874  0.06138732     0.12400
C1282       C  0.47149716  0.94231863  0.02429621     0.61900
F1283       F  0.31562303  0.97899101  0.11017458    -0.23300
F1284       F  0.33247329  0.03571454  0.09272103    -0.20600
F1285       F  0.35678035  0.01027873  0.14451367    -0.20300
F1286       F  0.46059414  0.93214691  0.98906787    -0.20300
F1287       F  0.48678132  0.91238796  0.04258718    -0.20700
F1288       F  0.49932419  0.96849673  0.02062424    -0.23300
C1289       C  0.28058204  0.14697167  0.28565679    -0.06200
C1290       C  0.31460428  0.15481773  0.30356005    -0.00200
C1291       C  0.31420209  0.16906248  0.33990350    -0.08800
C1292       C  0.27957582  0.17439837  0.35743995    -0.06200
C1293       C  0.24523433  0.16778776  0.33937027    -0.00300
C1294       C  0.24567768  0.15410620  0.30261530    -0.08700
C1295       C  0.20990079  0.14937554  0.28058779     0.61700
H1296       H  0.28164900  0.13640364  0.25764884     0.12400
H1297       H  0.27907083  0.18489033  0.38548828     0.12400
C1298       C  0.35017209  0.17924041  0.35982804     0.61900
F1299       F  0.21687939  0.13730257  0.24491245    -0.23300
F1300       F  0.19137290  0.18282945  0.27848055    -0.20600
F1301       F  0.18711874  0.12376307  0.29741850    -0.20300
F1302       F  0.36697195  0.20841736  0.34189341    -0.20300
F1303       F  0.37438477  0.14947765  0.36011313    -0.20700
F1304       F  0.34379035  0.18966731  0.39612412    -0.23300
C1305       C  0.35676509  0.27019788  0.13957803    -0.06200
C1306       C  0.33453465  0.24065923  0.15108381    -0.00200
C1307       C  0.29555893  0.24516353  0.15462055    -0.08800
C1308       C  0.28011799  0.28041110  0.14827068    -0.06200
C1309       C  0.30285414  0.31052403  0.13871713    -0.00300
C1310       C  0.34154805  0.30519572  0.13305332    -0.08700
C1311       C  0.36681745  0.33652489  0.12127311     0.61700
H1312       H  0.38665048  0.26584107  0.13709776     0.12400
H1313       H  0.25037678  0.28494186  0.15148333     0.12400
C1314       C  0.27116419  0.21313937  0.16617012     0.61900
F1315       F  0.40390160  0.32563504  0.11918581    -0.23300
F1316       F  0.36435383  0.36507305  0.14646204    -0.20600
F1317       F  0.35602809  0.34903987  0.08680300    -0.20300
F1318       F  0.28084112  0.20208276  0.20150046    -0.20300
F1319       F  0.27629740  0.18395051  0.14203782    -0.20700
F1320       F  0.23362132  0.22237278  0.16588407    -0.23300
C1321       C  0.53472325  0.11405573  0.02262588    -0.06200
C1322       C  0.55304251  0.10425831  0.05571452    -0.00200
C1323       C  0.58896937  0.08820459  0.05436583    -0.08800
C1324       C  0.60424490  0.08003815  0.01976136    -0.06200
C1325       C  0.58540201  0.08789510  0.98646312    -0.00300
C1326       C  0.55052433  0.10637381  0.98766375    -0.08700
C1327       C  0.52976277  0.11697319  0.95264528     0.61700
H1328       H  0.50758625  0.12725934  0.02446918     0.12400
H1329       H  0.63179992  0.06774767  0.01845766     0.12400
C1330       C  0.61196787  0.08141165  0.08910834     0.61900
F1331       F  0.49580033  0.13371115  0.96025434    -0.23300
F1332       F  0.52295827  0.08587198  0.93165472    -0.20600
F1333       F  0.55087621  0.14144010  0.93230002    -0.20300
F1334       F  0.59469976  0.05555363  0.11117753    -0.20300
F1335       F  0.61567045  0.11407051  0.10854153    -0.20700
F1336       F  0.64752576  0.06850808  0.08101550    -0.23300
C1337       C  0.48578529  0.21057584  0.37117518    -0.06200
C1338       C  0.49148444  0.22874400  0.33755470    -0.00200
C1339       C  0.51141504  0.26237163  0.33708862    -0.08800
C1340       C  0.52625103  0.27613151  0.37057742    -0.06200
C1341       C  0.52254594  0.25653779  0.40380314    -0.00300
C1342       C  0.50086175  0.22390866  0.40445109    -0.08700
C1343       C  0.49535054  0.20058681  0.43880207     0.61700
H1344       H  0.47109737  0.18445291  0.37110626     0.12400
H1345       H  0.54321346  0.30081871  0.37056859     0.12400
C1346       C  0.51879940  0.28222744  0.30105088     0.61900
F1347       F  0.45835419  0.18980205  0.44122009    -0.23300
F1348       F  0.50412020  0.21910324  0.47111744    -0.20600
F1349       F  0.51763232  0.16948299  0.43617005    -0.20300
F1350       F  0.48526665  0.28951205  0.28339858    -0.20300
F1351       F  0.54077983  0.26037936  0.27841921    -0.20700
F1352       F  0.53708096  0.31536157  0.30669454    -0.23300
C1353       C  0.59417448  0.00164156  0.24833843    -0.06200
C1354       C  0.59896586  0.03686909  0.23328740    -0.00200
C1355       C  0.63486653  0.05305039  0.23280525    -0.08800
C1356       C  0.66385362  0.03563333  0.25224295    -0.06200
C1357       C  0.65855185  0.00160771  0.26982308    -0.00300
C1358       C  0.62382216  0.98324637  0.26626187    -0.08700
C1359       C  0.61761957  0.94537726  0.28276137     0.61700
H1360       H  0.56648857  0.98961396  0.24779304     0.12400
H1361       H  0.69082847  0.04909145  0.25429473     0.12400
C1362       C  0.64370876  0.08874032  0.21281098     0.61900
F1363       F  0.58152593  0.93300632  0.27672274    -0.23300
F1364       F  0.62389247  0.94638800  0.32049985    -0.20600
F1365       F  0.64191336  0.92040533  0.26664154    -0.20300
F1366       F  0.65057876  0.11625491  0.23841291    -0.20300
F1367       F  0.61515427  0.10007028  0.18964214    -0.20700
F1368       F  0.67525333  0.08381648  0.19126229    -0.23300
loop_ 
_geom_bond_atom_site_label_1 
_geom_bond_atom_site_label_2 
_geom_bond_distance 
_geom_bond_site_symmetry_2 
_ccdc_geom_bond_type 
Zr1           O2   2.441       .  S
Zr1           O3   2.442       .  S
Zr1           O4   2.412       .  S
Zr1           O7   2.428       .  S
Zr1           O9   2.378       .  S
Zr1          O10   2.373       .  S
Zr1          O11   2.409       .  S
Zr1          O12   2.404       .  S
O2           H58   0.991       .  S
O2           H66   0.990   1_545  S
O3           C23   1.285       .  A
O4           C25   1.281       .  A
O5          Zr15   2.419       .  S
O5           C24   1.283       .  A
O6          Zr14   2.479       .  S
O6           C25   1.293       .  A
O7           C24   1.282       .  A
O8          Zr16   2.416       .  S
O8           C23   1.279       .  A
O9          Zr14   2.396       .  S
O9          Zr16   2.381       .  S
O10         Zr15   2.388       .  S
O10         Zr16   2.368       .  S
O10          H45   0.964       .  S
O11         Zr14   2.404       .  S
O11         Zr31   2.389       .  S
O11          H48   0.964       .  S
O12         Zr15   2.388       .  S
O12         Zr31   2.406       .  S
Zr13         O38   2.440       .  S
Zr13         O32   2.437       .  S
Zr13         O40   2.456       .  S
Zr13         O28   2.416       .  S
Zr13         O19   2.400       .  S
Zr13         O20   2.413       .  S
Zr13         O21   2.383       .  S
Zr13         O22   2.375       .  S
Zr14         O33   2.433       .  S
Zr14         O26   2.435       .  S
Zr14         O27   2.454       .  S
Zr14         O20   2.417       .  S
Zr14         O21   2.395       .  S
Zr15         O17   2.436       .  S
Zr15         O39   2.435       .  S
Zr15         O41   2.417       .  S
Zr15         O19   2.388       .  S
Zr15         O22   2.394       .  S
Zr16         O42   2.437       .  S
Zr16         O43   2.434       .  S
Zr16         O18   2.438       .  S
Zr16         O19   2.402       .  S
Zr16         O20   2.374       .  S
O17          H54   0.990       .  S
O18          H49   0.990       .  S
O18          H63   0.990       .  S
O20          H46   0.964       .  S
O21         Zr31   2.371       .  S
O22         Zr31   2.371       .  S
O22          H47   0.965       .  S
C23        C1322   1.475       .  S
C24        C1354   1.466       .  S
C25        C1277   1.493       .  S
O26          H62   0.990       .  S
O27          C29   1.289       .  A
O28          C29   1.282       .  A
C29        C1306   1.466       .  S
O30         Zr31   2.438       .  S
O30          H59   0.990       .  S
Zr31         O34   2.439       .  S
Zr31         O35   2.439       .  S
Zr31         O36   2.442       .  S
O32          C37   1.284       .  A
O33          H50   0.990       .  S
O33          H65   0.989       .  S
O34          H51   0.990       .  S
O35          H55   0.990       .  S
O35          H64   0.990       .  S
O36          C37   1.284       .  A
C37        C1290   1.482       .  S
O38          H57   0.990       .  S
O38          H61   0.990       .  S
O39          H53   0.990       .  S
O39          H60   0.990       .  S
O40          C44   1.288       .  A
O41          C44   1.281       .  A
O42          H52   0.990       .  S
O43          H56   0.990       .  S
C44        C1338   1.476       .  S
Zr67         O68   2.440   1_455  S
Zr67         O69   2.444       .  S
Zr67         O70   2.427       .  S
Zr67         O73   2.459       .  S
Zr67         O75   2.387       .  S
Zr67         O76   2.378       .  S
Zr67         O77   2.415       .  S
Zr67         O78   2.407       .  S
O68         H124   0.991       .  S
O68         H132   0.990       .  S
O69          C89   1.287       .  A
O70          C91   1.283       .  A
O71         Zr81   2.423       .  S
O71          C90   1.283       .  A
O72         Zr80   2.468       .  S
O72          C91   1.291       .  A
O73          C90   1.289       .  A
O74         Zr82   2.440       .  S
O74          C89   1.284       .  A
O75         Zr80   2.402       .  S
O75         Zr82   2.373       .  S
O76         Zr81   2.398       .  S
O76         Zr82   2.367       .  S
O76         H111   0.966       .  S
O77         Zr80   2.408       .  S
O77         Zr97   2.383       .  S
O77         H114   0.968       .  S
O78         Zr81   2.390       .  S
O78         Zr97   2.400       .  S
Zr79        O104   2.443       .  S
Zr79         O98   2.459       .  S
Zr79        O106   2.456       .  S
Zr79         O94   2.412       .  S
Zr79         O85   2.407       .  S
Zr79         O86   2.415       .  S
Zr79         O87   2.377       .  S
Zr79         O88   2.378       .  S
Zr80         O99   2.435       .  S
Zr80         O92   2.435       .  S
Zr80         O93   2.485       .  S
Zr80         O86   2.400       .  S
Zr80         O87   2.392       .  S
Zr81         O83   2.434       .  S
Zr81        O105   2.437       .  S
Zr81        O107   2.425       .  S
Zr81         O85   2.387       .  S
Zr81         O88   2.400       .  S
Zr82        O108   2.435       .  S
Zr82        O109   2.435       .  S
Zr82         O84   2.437       .  S
Zr82         O85   2.406       .  S
Zr82         O86   2.384       .  S
O83         H120   0.990       .  S
O84         H115   0.990       .  S
O84         H129   0.990       .  S
O86         H112   0.964       .  S
O87         Zr97   2.382       .  S
O88         Zr97   2.383       .  S
O88         H113   0.965       .  S
C89        C1261   1.503       .  S
C90        C1213   1.480       .  S
C91        C1229   1.480       .  S
O92         H128   0.990       .  S
O93          C95   1.294       .  A
O94          C95   1.282       .  A
C95        C1293   1.494       .  S
O96         Zr97   2.441       .  S
O96         H125   0.989   1_455  S
Zr97        O100   2.436       .  S
Zr97        O101   2.442       .  S
Zr97        O102   2.428       .  S
O98         C103   1.289       .  A
O99         H116   0.990       .  S
O99         H131   0.990       .  S
O100        H117   0.990       .  S
O101        H121   0.990       .  S
O101        H130   0.989       .  S
O102        C103   1.281       .  A
C103       C1245   1.495       .  S
O104        H123   0.990       .  S
O104        H127   0.990       .  S
O105        H119   0.990       .  S
O105        H126   0.989       .  S
O106        C110   1.287       .  A
O107        C110   1.284       .  A
O108        H118   0.990       .  S
O109        H122   0.990       .  S
C110       C1197   1.485       .  S
Zr133       O134   2.440       .  S
Zr133       O135   2.447       .  S
Zr133       O136   2.428       .  S
Zr133       O139   2.452       .  S
Zr133       O141   2.376       .  S
Zr133       O142   2.380       .  S
Zr133       O143   2.413       .  S
Zr133       O144   2.405       .  S
O134        H190   0.990       .  S
O134        H198   0.990       .  S
O135        C155   1.286       .  A
O136        C157   1.283       .  A
O137       Zr147   2.402       .  S
O137        C156   1.279       .  A
O138       Zr146   2.473       .  S
O138        C157   1.292       .  A
O139        C156   1.287       .  A
O140       Zr148   2.414       .  S
O140        C155   1.279       .  A
O141       Zr146   2.390       .  S
O141       Zr148   2.382       .  S
O142       Zr147   2.390       .  S
O142       Zr148   2.369       .  S
O142        H177   0.967       .  S
O143       Zr146   2.409       .  S
O143       Zr163   2.373       .  S
O143        H180   0.964       .  S
O144       Zr147   2.390       .  S
O144       Zr163   2.400       .  S
Zr145       O170   2.441       .  S
Zr145       O164   2.437       .  S
Zr145       O172   2.452       .  S
Zr145       O160   2.424       .  S
Zr145       O151   2.404       .  S
Zr145       O152   2.409       .  S
Zr145       O153   2.384       .  S
Zr145       O154   2.380       .  S
Zr146       O165   2.434       .  S
Zr146       O158   2.437       .  S
Zr146       O159   2.460       .  S
Zr146       O152   2.409       .  S
Zr146       O153   2.398       .  S
Zr147       O149   2.436       .  S
Zr147       O171   2.436       .  S
Zr147       O173   2.408       .  S
Zr147       O151   2.386       .  S
Zr147       O154   2.398       .  S
Zr148       O174   2.438       .  S
Zr148       O175   2.436       .  S
Zr148       O150   2.437       .  S
Zr148       O151   2.398       .  S
Zr148       O152   2.377       .  S
O149        H186   0.990       .  S
O150        H181   0.990       .  S
O150        H195   0.990       .  S
O152        H178   0.964       .  S
O153       Zr163   2.380       .  S
O154       Zr163   2.378       .  S
O154        H179   0.966       .  S
C155       C1309   1.472       .  S
C156       C1162   1.469       .  S
C157       C1242   1.481       .  S
O158        H194   0.991       .  S
O159        C161   1.291       .  A
O160        C161   1.283       .  A
C161       C1133   1.478       .  S
O162       Zr163   2.439       .  S
O162        H191   0.991       .  S
Zr163       O166   2.440       .  S
Zr163       O167   2.437       .  S
Zr163       O168   2.421       .  S
O164        C169   1.284       .  A
O165        H182   0.990       .  S
O165        H197   0.990       .  S
O166        H183   0.990       .  S
O167        H187   0.989       .  S
O167        H196   0.990       .  S
O168        C169   1.280       .  A
C169       C1146   1.473       .  S
O170        H189   0.991       .  S
O170        H193   0.990   1_554  S
O171        H185   0.989       .  S
O171        H192   0.990       .  S
O172        C176   1.285       .  A
O173        C176   1.279       .  A
O174        H184   0.990       .  S
O175        H188   0.991       .  S
C176       C1178   1.471       .  S
Zr199       O200   2.441       .  S
Zr199       O201   2.430       .  S
Zr199       O202   2.409       .  S
Zr199       O205   2.456       .  S
Zr199       O207   2.384       .  S
Zr199       O208   2.373       .  S
Zr199       O209   2.415       .  S
Zr199       O210   2.396       .  S
O200        H256   0.990       .  S
O200        H264   0.990       .  S
O201        C221   1.281       .  A
O202        C223   1.281       .  A
O203       Zr213   2.427       .  S
O203        C222   1.283   1_455  A
O204       Zr212   2.467       .  S
O204        C223   1.290       .  A
O205        C222   1.288       .  A
O206       Zr214   2.431       .  S
O206        C221   1.284       .  A
O207       Zr212   2.396       .  S
O207       Zr214   2.371       .  S
O208       Zr213   2.392   1_655  S
O208       Zr214   2.371       .  S
O208        H243   0.965       .  S
O209       Zr212   2.419       .  S
O209       Zr229   2.384   1_655  S
O209        H246   0.965       .  S
O210       Zr213   2.391   1_655  S
O210       Zr229   2.398   1_655  S
Zr211       O236   2.442   1_655  S
Zr211       O230   2.453   1_655  S
Zr211       O238   2.434   1_655  S
Zr211       O226   2.402       .  S
Zr211       O217   2.405       .  S
Zr211       O218   2.414       .  S
Zr211       O219   2.373       .  S
Zr211       O220   2.376   1_655  S
Zr212       O231   2.436       .  S
Zr212       O224   2.435       .  S
Zr212       O225   2.487       .  S
Zr212       O218   2.405       .  S
Zr212       O219   2.391       .  S
Zr213       O215   2.434       .  S
Zr213       O237   2.435       .  S
Zr213       O239   2.427       .  S
Zr213       O217   2.388   1_455  S
Zr213       O220   2.398       .  S
Zr214       O240   2.435       .  S
Zr214       O241   2.436       .  S
Zr214       O216   2.441       .  S
Zr214       O217   2.404       .  S
Zr214       O218   2.391       .  S
O215        H252   0.990       .  S
O216        H247   0.989       .  S
O216        H261   0.990       .  S
O218        H244   0.964       .  S
O219       Zr229   2.380   1_655  S
O220       Zr229   2.373       .  S
O220        H245   0.965       .  S
C221       C1114   1.500       .  S
C222       C1210   1.482       .  S
C223       C1082   1.481       .  S
O224        H260   0.990       .  S
O225        C227   1.295       .  A
O226        C227   1.279       .  A
C227       C1098   1.497       .  S
O228       Zr229   2.440       .  S
O228        H257   0.990       .  S
Zr229       O232   2.437   1_455  S
Zr229       O233   2.443       .  S
Zr229       O234   2.418       .  S
O230        C235   1.289       .  A
O231        H248   0.990       .  S
O231        H263   0.990       .  S
O232        H249   0.990       .  S
O233        H253   0.990       .  S
O233        H262   0.989       .  S
O234        C235   1.279       .  A
C235       C1130   1.492       .  S
O236        H255   0.991   1_455  S
O236        H259   0.991       .  S
O237        H251   0.990       .  S
O237        H258   0.989   1_455  S
O238        C242   1.284       .  A
O239        C242   1.284       .  A
O240        H250   0.990       .  S
O241        H254   0.990       .  S
C242       C1069   1.468       .  S
Zr265       O266   2.443       .  S
Zr265       O267   2.450       .  S
Zr265       O268   2.419       .  S
Zr265       O271   2.443       .  S
Zr265       O273   2.378       .  S
Zr265       O274   2.380       .  S
Zr265       O275   2.413       .  S
Zr265       O276   2.406       .  S
O266        H322   0.991       .  S
O266        H330   0.991       .  S
O267        C287   1.287       .  A
O268        C289   1.281       .  A
O269       Zr279   2.415       .  S
O269        C288   1.282   1_545  A
O270       Zr278   2.486       .  S
O270        C289   1.295       .  A
O271        C288   1.285       .  A
O272       Zr280   2.424       .  S
O272        C287   1.280       .  A
O273       Zr278   2.395       .  S
O273       Zr280   2.376       .  S
O274       Zr279   2.399   1_565  S
O274       Zr280   2.371       .  S
O274        H309   0.966       .  S
O275       Zr278   2.411       .  S
O275       Zr295   2.383       .  S
O275        H312   0.963       .  S
O276       Zr279   2.390   1_565  S
O276       Zr295   2.395       .  S
Zr277       O302   2.441   1_565  S
Zr277       O296   2.445   1_565  S
Zr277       O304   2.450   1_565  S
Zr277       O292   2.414       .  S
Zr277       O283   2.405       .  S
Zr277       O284   2.417       .  S
Zr277       O285   2.382       .  S
Zr277       O286   2.378   1_565  S
Zr278       O297   2.434       .  S
Zr278       O290   2.434       .  S
Zr278       O291   2.481       .  S
Zr278       O284   2.415       .  S
Zr278       O285   2.400       .  S
Zr279       O281   2.436       .  S
Zr279       O303   2.439       .  S
Zr279       O305   2.417       .  S
Zr279       O283   2.386   1_545  S
Zr279       O286   2.396       .  S
Zr280       O306   2.435       .  S
Zr280       O307   2.435       .  S
Zr280       O282   2.438       .  S
Zr280       O283   2.398       .  S
Zr280       O284   2.380       .  S
O281        H318   0.990       .  S
O282        H313   0.990       .  S
O282        H327   0.990       .  S
O284        H310   0.963       .  S
O285       Zr295   2.382       .  S
O286       Zr295   2.371   1_545  S
O286        H311   0.965       .  S
C287       C1002   1.489       .  S
C288       C1357   1.475   1_565  S
C289       C1018   1.498       .  S
O290        H326   0.990       .  S
O291        C293   1.293       .  A
O292        C293   1.282       .  A
C293       C1034   1.494       .  S
O294       Zr295   2.436   1_545  S
O294        H323   0.991   1_545  S
Zr295       O298   2.434       .  S
Zr295       O299   2.438   1_565  S
Zr295       O300   2.420   1_565  S
O296        C301   1.285       .  A
O297        H314   0.990       .  S
O297        H329   0.989       .  S
O298        H315   0.989       .  S
O299        H319   0.990       .  S
O299        H328   0.990       .  S
O300        C301   1.281       .  A
C301       C1226   1.483       .  S
O302        H321   0.990   1_545  S
O302        H325   0.991       .  S
O303        H317   0.990       .  S
O303        H324   0.990       .  S
O304        C308   1.286       .  A
O305        C308   1.281       .  A
O306        H316   0.990       .  S
O307        H320   0.990       .  S
C308       C1050   1.475       .  S
Zr331       O332   2.442       .  S
Zr331       O333   2.433       .  S
Zr331       O334   2.410       .  S
Zr331       O337   2.447       .  S
Zr331       O339   2.386       .  S
Zr331       O340   2.375       .  S
Zr331       O341   2.415       .  S
Zr331       O342   2.396       .  S
O332        H388   0.990       .  S
O332        H396   0.990       .  S
O333        C353   1.284       .  A
O334        C355   1.280       .  A
O335       Zr345   2.426       .  S
O335        C354   1.283   1_655  A
O336       Zr344   2.458       .  S
O336        C355   1.289       .  A
O337        C354   1.286       .  A
O338       Zr346   2.431       .  S
O338        C353   1.282       .  A
O339       Zr344   2.398       .  S
O339       Zr346   2.374       .  S
O340       Zr345   2.389   1_455  S
O340       Zr346   2.375       .  S
O340        H375   0.966       .  S
O341       Zr344   2.419       .  S
O341       Zr361   2.385   1_455  S
O341        H378   0.964       .  S
O342       Zr345   2.383   1_455  S
O342       Zr361   2.395   1_455  S
Zr343       O368   2.442   1_455  S
Zr343       O362   2.460   1_455  S
Zr343       O370   2.433   1_455  S
Zr343       O358   2.407       .  S
Zr343       O349   2.407       .  S
Zr343       O350   2.415       .  S
Zr343       O351   2.374       .  S
Zr343       O352   2.379   1_455  S
Zr344       O363   2.436       .  S
Zr344       O356   2.435       .  S
Zr344       O357   2.491       .  S
Zr344       O350   2.401       .  S
Zr344       O351   2.393       .  S
Zr345       O347   2.435       .  S
Zr345       O369   2.437       .  S
Zr345       O371   2.415       .  S
Zr345       O349   2.387   1_655  S
Zr345       O352   2.403       .  S
Zr346       O372   2.435       .  S
Zr346       O373   2.435       .  S
Zr346       O348   2.436       .  S
Zr346       O349   2.399       .  S
Zr346       O350   2.383       .  S
O347        H384   0.990       .  S
O348        H379   0.990       .  S
O348        H393   0.990       .  S
O350        H376   0.964       .  S
O351       Zr361   2.382   1_455  S
O352       Zr361   2.375       .  S
O352        H377   0.966       .  S
C353        C986   1.476       .  S
C354        C941   1.478       .  S
C355        C970   1.471       .  S
O356        H392   0.990       .  S
O357        C359   1.295       .  A
O358        C359   1.277       .  A
C359       C1258   1.487       .  S
O360       Zr361   2.437       .  S
O360        H389   0.990       .  S
Zr361       O364   2.433       .  S
Zr361       O365   2.438       .  S
Zr361       O366   2.415       .  S
O362        C367   1.288       .  A
O363        H380   0.990       .  S
O363        H395   0.990       .  S
O364        H381   0.990   1_655  S
O365        H385   0.990       .  S
O365        H394   0.990       .  S
O366        C367   1.279       .  A
C367       C1037   1.484       .  S
O368        H387   0.990   1_665  S
O368        H391   0.990   1_565  S
O369        H383   0.990   1_655  S
O369        H390   0.990       .  S
O370        C374   1.283       .  A
O371        C374   1.283       .  A
O372        H382   0.990       .  S
O373        H386   0.991       .  S
C374        C954   1.480       .  S
Zr397       O398   2.441       .  S
Zr397       O399   2.452       .  S
Zr397       O400   2.412       .  S
Zr397       O403   2.441       .  S
Zr397       O405   2.373       .  S
Zr397       O406   2.376       .  S
Zr397       O407   2.411       .  S
Zr397       O408   2.414       .  S
O398        H454   0.991       .  S
O398        H462   0.990       .  S
O399        C419   1.287       .  A
O400        C421   1.281       .  A
O401       Zr411   2.424       .  S
O401        C420   1.283   1_554  A
O402       Zr410   2.475       .  S
O402        C421   1.294       .  A
O403        C420   1.282       .  A
O404       Zr412   2.421       .  S
O404        C419   1.280       .  A
O405       Zr410   2.395       .  S
O405       Zr412   2.380       .  S
O406       Zr411   2.394   1_556  S
O406       Zr412   2.368       .  S
O406        H441   0.965       .  S
O407       Zr410   2.399       .  S
O407       Zr427   2.375   1_556  S
O407        H444   0.959       .  S
O408       Zr411   2.394   1_556  S
O408       Zr427   2.408   1_556  S
Zr409       O434   2.440       .  S
Zr409       O428   2.443   1_556  S
Zr409       O436   2.450   1_556  S
Zr409       O424   2.430       .  S
Zr409       O415   2.411       .  S
Zr409       O416   2.408       .  S
Zr409       O417   2.381       .  S
Zr409       O418   2.382   1_556  S
Zr410       O429   2.434       .  S
Zr410       O422   2.435       .  S
Zr410       O423   2.471       .  S
Zr410       O416   2.406       .  S
Zr410       O417   2.396       .  S
Zr411       O413   2.436       .  S
Zr411       O435   2.435       .  S
Zr411       O437   2.420       .  S
Zr411       O415   2.393   1_554  S
Zr411       O418   2.398       .  S
Zr412       O438   2.437       .  S
Zr412       O439   2.436       .  S
Zr412       O414   2.437       .  S
Zr412       O415   2.404       .  S
Zr412       O416   2.376       .  S
O413        H450   0.990       .  S
O414        H445   0.990       .  S
O414        H459   0.991       .  S
O416        H442   0.962       .  S
O417       Zr427   2.382   1_556  S
O418       Zr427   2.366       .  S
O418        H443   0.966       .  S
C419        C922   1.497       .  S
C420       C1181   1.474   1_556  S
C421        C989   1.483       .  S
O422        H458   0.990       .  S
O423        C425   1.292       .  A
O424        C425   1.284       .  A
C425        C909   1.480       .  S
O426       Zr427   2.436       .  S
O426        H455   0.990       .  S
Zr427       O430   2.438   1_554  S
Zr427       O431   2.440       .  S
Zr427       O432   2.432       .  S
O428        C433   1.283       .  A
O429        H446   0.990       .  S
O429        H461   0.990       .  S
O430        H447   0.990   1_556  S
O431        H451   0.990       .  S
O431        H460   0.990       .  S
O432        C433   1.284       .  A
C433       C1274   1.506       .  S
O434        H453   0.990   1_556  S
O434        H457   0.990       .  S
O435        H449   0.989       .  S
O435        H456   0.990       .  S
O436        C440   1.285       .  A
O437        C440   1.282       .  A
O438        H448   0.990       .  S
O439        H452   0.990       .  S
C440        C893   1.473       .  S
Zr463       O464   2.441       .  S
Zr463       O465   2.444       .  S
Zr463       O466   2.417       .  S
Zr463       O469   2.447       .  S
Zr463       O471   2.383       .  S
Zr463       O472   2.378       .  S
Zr463       O473   2.412       .  S
Zr463       O474   2.402       .  S
O464        H520   0.990       .  S
O464        H528   0.991       .  S
O465        C485   1.285       .  A
O466        C487   1.280       .  A
O467       Zr477   2.402       .  S
O467        C486   1.279       .  A
O468       Zr476   2.482       .  S
O468        C487   1.294       .  A
O469        C486   1.286       .  A
O470       Zr478   2.424       .  S
O470        C485   1.281       .  A
O471       Zr476   2.393       .  S
O471       Zr478   2.379       .  S
O472       Zr477   2.392       .  S
O472       Zr478   2.374       .  S
O472        H507   0.966       .  S
O473       Zr476   2.406       .  S
O473       Zr493   2.374       .  S
O473        H510   0.964       .  S
O474       Zr477   2.385       .  S
O474       Zr493   2.397       .  S
Zr475       O500   2.438       .  S
Zr475       O494   2.427       .  S
Zr475       O502   2.462       .  S
Zr475       O490   2.415       .  S
Zr475       O481   2.396       .  S
Zr475       O482   2.416       .  S
Zr475       O483   2.384       .  S
Zr475       O484   2.373       .  S
Zr476       O495   2.435       .  S
Zr476       O488   2.436       .  S
Zr476       O489   2.463       .  S
Zr476       O482   2.415       .  S
Zr476       O483   2.396       .  S
Zr477       O479   2.435       .  S
Zr477       O501   2.436       .  S
Zr477       O503   2.411       .  S
Zr477       O481   2.382       .  S
Zr477       O484   2.388       .  S
Zr478       O504   2.436       .  S
Zr478       O505   2.436       .  S
Zr478       O480   2.436       .  S
Zr478       O481   2.400       .  S
Zr478       O482   2.386       .  S
O479        H516   0.990       .  S
O480        H511   0.991       .  S
O480        H525   0.990       .  S
O482        H508   0.965       .  S
O483       Zr493   2.377       .  S
O484       Zr493   2.375       .  S
O484        H509   0.966       .  S
C485        C973   1.473       .  S
C486       C1066   1.473       .  S
C487        C925   1.484       .  S
O488        H524   0.990       .  S
O489        C491   1.291       .  A
O490        C491   1.279       .  A
C491        C874   1.475       .  S
O492       Zr493   2.438       .  S
O492        H521   0.990       .  S
Zr493       O496   2.437       .  S
Zr493       O497   2.439       .  S
Zr493       O498   2.422       .  S
O494        C499   1.282       .  A
O495        H512   0.990       .  S
O495        H527   0.990       .  S
O496        H513   0.990       .  S
O497        H517   0.989       .  S
O497        H526   0.990       .  S
O498        C499   1.281       .  A
C499        C861   1.471       .  S
O500        H519   0.990       .  S
O500        H523   0.991       .  S
O501        H515   0.990       .  S
O501        H522   0.990       .  S
O502        C506   1.289       .  A
O503        C506   1.280       .  A
O504        H514   0.990       .  S
O505        H518   0.991       .  S
C506       C1194   1.482       .  S
Zr529       O530   2.440       .  S
Zr529       O531   2.433       .  S
Zr529       O532   2.411       .  S
Zr529       O535   2.436       .  S
Zr529       O537   2.384       .  S
Zr529       O538   2.378       .  S
Zr529       O539   2.410       .  S
Zr529       O540   2.399       .  S
O530        H586   0.990       .  S
O530        H594   0.990       .  S
O531        C551   1.284       .  A
O532        C553   1.282       .  A
O533       Zr543   2.426       .  S
O533        C552   1.284       .  A
O534       Zr542   2.470       .  S
O534        C553   1.291       .  A
O535        C552   1.284       .  A
O536       Zr544   2.426       .  S
O536        C551   1.280       .  A
O537       Zr542   2.401       .  S
O537       Zr544   2.376       .  S
O538       Zr543   2.395       .  S
O538       Zr544   2.369       .  S
O538        H573   0.966       .  S
O539       Zr542   2.408       .  S
O539       Zr559   2.378       .  S
O539        H576   0.965       .  S
O540       Zr543   2.387       .  S
O540       Zr559   2.398       .  S
Zr541       O566   2.441       .  S
Zr541       O560   2.448       .  S
Zr541       O568   2.440       .  S
Zr541       O556   2.415       .  S
Zr541       O547   2.405       .  S
Zr541       O548   2.414       .  S
Zr541       O549   2.379       .  S
Zr541       O550   2.375       .  S
Zr542       O561   2.433       .  S
Zr542       O554   2.434       .  S
Zr542       O555   2.467       .  S
Zr542       O548   2.412       .  S
Zr542       O549   2.390       .  S
Zr543       O545   2.433       .  S
Zr543       O567   2.436       .  S
Zr543       O569   2.424       .  S
Zr543       O547   2.389       .  S
Zr543       O550   2.390       .  S
Zr544       O570   2.436       .  S
Zr544       O571   2.435       .  S
Zr544       O546   2.438       .  S
Zr544       O547   2.402       .  S
Zr544       O548   2.383       .  S
O545        H582   0.990       .  S
O546        H577   0.990       .  S
O546        H591   0.990       .  S
O548        H574   0.965       .  S
O549       Zr559   2.378       .  S
O550       Zr559   2.375       .  S
O550        H575   0.965       .  S
C551        C877   1.484       .  S
C552       C1165   1.472       .  S
C553        C826   1.490       .  S
O554        H590   0.989       .  S
O555        C557   1.291       .  A
O556        C557   1.280       .  A
C557       C1005   1.476       .  S
O558       Zr559   2.436       .  S
O558        H587   0.991       .  S
Zr559       O562   2.437       .  S
Zr559       O563   2.441       .  S
Zr559       O564   2.422       .  S
O560        C565   1.287       .  A
O561        H578   0.990       .  S
O561        H593   0.988       .  S
O562        H579   0.990       .  S
O563        H583   0.990       .  S
O563        H592   0.990       .  S
O564        C565   1.280       .  A
C565        C842   1.474       .  S
O566        H585   0.990       .  S
O566        H589   0.990       .  S
O567        H581   0.990       .  S
O567        H588   0.989       .  S
O568        C572   1.285       .  A
O569        C572   1.283       .  A
O570        H580   0.990       .  S
O571        H584   0.990       .  S
C572        C890   1.473       .  S
Zr595       O596   2.440       .  S
Zr595       O597   2.454       .  S
Zr595       O598   2.412       .  S
Zr595       O601   2.453       .  S
Zr595       O603   2.378       .  S
Zr595       O604   2.381       .  S
Zr595       O605   2.416       .  S
Zr595       O606   2.407       .  S
O596        H652   0.990       .  S
O596        H660   0.991       .  S
O597        C617   1.288       .  A
O598        C619   1.283       .  A
O599       Zr609   2.419       .  S
O599        C618   1.283       .  A
O600       Zr608   2.472       .  S
O600        C619   1.292       .  A
O601        C618   1.287       .  A
O602       Zr610   2.427       .  S
O602        C617   1.282       .  A
O603       Zr608   2.390       .  S
O603       Zr610   2.379       .  S
O604       Zr609   2.396       .  S
O604       Zr610   2.372       .  S
O604        H639   0.965       .  S
O605       Zr608   2.402       .  S
O605       Zr625   2.390       .  S
O605        H642   0.965       .  S
O606       Zr609   2.386       .  S
O606       Zr625   2.404       .  S
Zr607       O632   2.440       .  S
Zr607       O626   2.433       .  S
Zr607       O634   2.442       .  S
Zr607       O622   2.409       .  S
Zr607       O613   2.398       .  S
Zr607       O614   2.411       .  S
Zr607       O615   2.377       .  S
Zr607       O616   2.376       .  S
Zr608       O627   2.435       .  S
Zr608       O620   2.434       .  S
Zr608       O621   2.454       .  S
Zr608       O614   2.409       .  S
Zr608       O615   2.391       .  S
Zr609       O611   2.435       .  S
Zr609       O633   2.437       .  S
Zr609       O635   2.424       .  S
Zr609       O613   2.383       .  S
Zr609       O616   2.394       .  S
Zr610       O636   2.435       .  S
Zr610       O637   2.436       .  S
Zr610       O612   2.437       .  S
Zr610       O613   2.397       .  S
Zr610       O614   2.375       .  S
O611        H648   0.990       .  S
O612        H643   0.990       .  S
O612        H657   0.990       .  S
O614        H640   0.964       .  S
O615       Zr625   2.371       .  S
O616       Zr625   2.374       .  S
O616        H641   0.965       .  S
C617        C810   1.489       .  S
C618       C1053   1.476       .  S
C619       C1117   1.488       .  S
O620        H656   0.990       .  S
O621        C623   1.288       .  A
O622        C623   1.282       .  A
C623        C858   1.478       .  S
O624       Zr625   2.440       .  S
O624        H653   0.990       .  S
Zr625       O628   2.438       .  S
Zr625       O629   2.441       .  S
Zr625       O630   2.438       .  S
O626        C631   1.281       .  A
O627        H644   0.990       .  S
O627        H659   0.989       .  S
O628        H645   0.991       .  S
O629        H649   0.990       .  S
O629        H658   0.990       .  S
O630        C631   1.286       .  A
C631        C829   1.504       .  S
O632        H651   0.990       .  S
O632        H655   0.990       .  S
O633        H647   0.990       .  S
O633        H654   0.990       .  S
O634        C638   1.285       .  A
O635        C638   1.283       .  A
O636        H646   0.990       .  S
O637        H650   0.991       .  S
C638       C1341   1.475       .  S
Zr661       O662   2.439   1_545  S
Zr661       O663   2.432   1_545  S
Zr661       O664   2.411       .  S
Zr661       O667   2.450   1_545  S
Zr661       O669   2.381       .  S
Zr661       O670   2.375   1_545  S
Zr661       O671   2.412       .  S
Zr661       O672   2.402       .  S
O662        H718   0.990       .  S
O662        H726   0.990   1_566  S
O663        C683   1.283       .  A
O664        C685   1.282       .  A
O665       Zr675   2.427       .  S
O665        C684   1.283       .  A
O666       Zr674   2.463       .  S
O666        C685   1.289       .  A
O667        C684   1.287       .  A
O668       Zr676   2.437       .  S
O668        C683   1.283       .  A
O669       Zr674   2.396       .  S
O669       Zr676   2.375   1_545  S
O670       Zr675   2.395       .  S
O670       Zr676   2.370       .  S
O670        H705   0.966       .  S
O671       Zr674   2.413       .  S
O671       Zr691   2.369       .  S
O671        H708   0.963       .  S
O672       Zr675   2.389   1_545  S
O672       Zr691   2.402       .  S
Zr673       O698   2.446       .  S
Zr673       O692   2.435       .  S
Zr673       O700   2.441       .  S
Zr673       O688   2.415       .  S
Zr673       O679   2.404       .  S
Zr673       O680   2.409       .  S
Zr673       O681   2.379       .  S
Zr673       O682   2.379       .  S
Zr674       O693   2.436       .  S
Zr674       O686   2.434       .  S
Zr674       O687   2.468       .  S
Zr674       O680   2.406       .  S
Zr674       O681   2.390       .  S
Zr675       O677   2.435       .  S
Zr675       O699   2.436       .  S
Zr675       O701   2.427   1_565  S
Zr675       O679   2.389   1_565  S
Zr675       O682   2.392   1_565  S
Zr676       O702   2.435       .  S
Zr676       O703   2.436       .  S
Zr676       O678   2.437   1_565  S
Zr676       O679   2.408   1_565  S
Zr676       O680   2.385   1_565  S
O677        H714   0.991       .  S
O678        H709   0.990   1_545  S
O678        H723   0.990       .  S
O680        H706   0.965       .  S
O681       Zr691   2.378       .  S
O682       Zr691   2.366       .  S
O682        H707   0.964       .  S
C683        C906   1.479       .  S
C684        C797   1.478       .  S
C685       C1325   1.483       .  S
O686        H722   0.990       .  S
O687        C689   1.292       .  A
O688        C689   1.281       .  A
C689        C813   1.476       .  S
O690       Zr691   2.439       .  S
O690        H719   0.990       .  S
Zr691       O694   2.439       .  S
Zr691       O695   2.439       .  S
Zr691       O696   2.425       .  S
O692        C697   1.285       .  A
O693        H710   0.990       .  S
O693        H725   0.990       .  S
O694        H711   0.990       .  S
O695        H715   0.989       .  S
O695        H724   0.990       .  S
O696        C697   1.281       .  A
C697       C1085   1.472       .  S
O698        H717   0.990       .  S
O698        H721   0.990       .  S
O699        H713   0.990       .  S
O699        H720   0.990       .  S
O700        C704   1.285       .  A
O701        C704   1.284       .  A
O702        H712   0.990       .  S
O703        H716   0.990   1_565  S
C704        C957   1.473       .  S
Zr727       O728   2.439   1_655  S
Zr727       O729   2.451   1_554  S
Zr727       O730   2.402       .  S
Zr727       O733   2.442   1_554  S
Zr727       O735   2.376       .  S
Zr727       O736   2.376   1_554  S
Zr727       O737   2.411       .  S
Zr727       O738   2.405       .  S
O728        H784   0.990   1_554  S
O728        H792   0.990       .  S
O729        C749   1.285       .  A
O730        C751   1.280       .  A
O731       Zr741   2.423       .  S
O731        C750   1.283       .  A
O732       Zr740   2.467       .  S
O732        C751   1.291       .  A
O733        C750   1.285       .  A
O734       Zr742   2.438       .  S
O734        C749   1.285       .  A
O735       Zr740   2.394       .  S
O735       Zr742   2.372   1_554  S
O736       Zr741   2.393       .  S
O736       Zr742   2.365       .  S
O736        H771   0.966       .  S
O737       Zr740   2.407       .  S
O737       Zr757   2.381       .  S
O737        H774   0.963       .  S
O738       Zr741   2.383   1_554  S
O738       Zr757   2.403       .  S
Zr739       O764   2.441       .  S
Zr739       O758   2.466       .  S
Zr739       O766   2.456       .  S
Zr739       O754   2.422       .  S
Zr739       O745   2.413       .  S
Zr739       O746   2.414       .  S
Zr739       O747   2.377       .  S
Zr739       O748   2.379       .  S
Zr740       O759   2.434       .  S
Zr740       O752   2.435       .  S
Zr740       O753   2.473       .  S
Zr740       O746   2.399       .  S
Zr740       O747   2.391       .  S
Zr741       O743   2.436       .  S
Zr741       O765   2.436       .  S
Zr741       O767   2.410       .  S
Zr741       O745   2.394   1_556  S
Zr741       O748   2.396   1_556  S
Zr742       O768   2.439       .  S
Zr742       O769   2.435       .  S
Zr742       O744   2.438   1_556  S
Zr742       O745   2.411   1_556  S
Zr742       O746   2.378   1_556  S
O743        H780   0.990       .  S
O744        H775   0.990   1_554  S
O744        H789   0.990       .  S
O746        H772   0.961       .  S
O747       Zr757   2.379       .  S
O748       Zr757   2.376       .  S
O748        H773   0.965       .  S
C749       C1101   1.513       .  S
C750        C938   1.472       .  S
C751       C1149   1.479       .  S
O752        H788   0.990       .  S
O753        C755   1.293       .  A
O754        C755   1.283       .  A
C755        C845   1.483       .  S
O756       Zr757   2.436       .  S
O756        H785   0.990       .  S
Zr757       O760   2.437       .  S
Zr757       O761   2.441       .  S
Zr757       O762   2.424       .  S
O758        C763   1.288       .  A
O759        H776   0.990       .  S
O759        H791   0.990       .  S
O760        H777   0.990       .  S
O761        H781   0.991       .  S
O761        H790   0.990       .  S
O762        C763   1.283       .  A
C763       C1021   1.509       .  S
O764        H783   0.990       .  S
O764        H787   0.990       .  S
O765        H779   0.990       .  S
O765        H786   0.990       .  S
O766        C770   1.286       .  A
O767        C770   1.280   1_556  A
O768        H778   0.990       .  S
O769        H782   0.990       .  S
C770        C794   1.475   1_554  S
C793        C794   1.401   1_554  A
C793        C798   1.409   1_554  A
C793        H800   1.083       .  S
C794        C795   1.416       .  A
C795        C796   1.409       .  A
C795        C802   1.518       .  S
C796        C797   1.404       .  A
C796        H801   1.083       .  S
C797        C798   1.416       .  A
C798        C799   1.515   1_556  S
C799        F803   1.385       .  S
C799        F804   1.382       .  S
C799        F805   1.383   1_554  S
C802        F806   1.384       .  S
C802        F807   1.381       .  S
C802        F808   1.384       .  S
C809        C810   1.409       .  A
C809        C814   1.412       .  A
C809        H816   1.083       .  S
C810        C811   1.421       .  A
C811        C812   1.408       .  A
C811        C818   1.519       .  S
C812        C813   1.401       .  A
C812        H817   1.084       .  S
C813        C814   1.412       .  A
C814        C815   1.517       .  S
C815        F819   1.384       .  S
C815        F820   1.383       .  S
C815        F821   1.383       .  S
C818        F822   1.384       .  S
C818        F823   1.381       .  S
C818        F824   1.385       .  S
C825        C826   1.403       .  A
C825        C830   1.406       .  A
C825        H832   1.083       .  S
C826        C827   1.417       .  A
C827        C828   1.410       .  A
C827        C834   1.517       .  S
C828        C829   1.412       .  A
C828        H833   1.082       .  S
C829        C830   1.429       .  A
C830        C831   1.522       .  S
C831        F835   1.385       .  S
C831        F836   1.380       .  S
C831        F837   1.383       .  S
C834        F838   1.382       .  S
C834        F839   1.382       .  S
C834        F840   1.385       .  S
C841        C842   1.396       .  A
C841        C846   1.400       .  A
C841        H848   1.086       .  S
C842        C843   1.422       .  A
C843        C844   1.410       .  A
C843        C850   1.516       .  S
C844        C845   1.402       .  A
C844        H849   1.085       .  S
C845        C846   1.423       .  A
C846        C847   1.518       .  S
C847        F851   1.385       .  S
C847        F852   1.377       .  S
C847        F853   1.383       .  S
C850        F854   1.383       .  S
C850        F855   1.381       .  S
C850        F856   1.384       .  S
C857        C858   1.405       .  A
C857        C862   1.398       .  A
C857        H864   1.083       .  S
C858        C859   1.415       .  A
C859        C860   1.412       .  A
C859        C866   1.517       .  S
C860        C861   1.407       .  A
C860        H865   1.083       .  S
C861        C862   1.411       .  A
C862        C863   1.520       .  S
C863        F867   1.385       .  S
C863        F868   1.382       .  S
C863        F869   1.382       .  S
C866        F870   1.384       .  S
C866        F871   1.382       .  S
C866        F872   1.384       .  S
C873        C874   1.402       .  A
C873        C878   1.408       .  A
C873        H880   1.083       .  S
C874        C875   1.416       .  A
C875        C876   1.407       .  A
C875        C882   1.520       .  S
C876        C877   1.406       .  A
C876        H881   1.083       .  S
C877        C878   1.420       .  A
C878        C879   1.519       .  S
C879        F883   1.385       .  S
C879        F884   1.384       .  S
C879        F885   1.382       .  S
C882        F886   1.382       .  S
C882        F887   1.383       .  S
C882        F888   1.384       .  S
C889        C890   1.402       .  A
C889        C894   1.408       .  A
C889        H896   1.083       .  S
C890        C891   1.414       .  A
C891        C892   1.407       .  A
C891        C898   1.517       .  S
C892        C893   1.402       .  A
C892        H897   1.084       .  S
C893        C894   1.414       .  A
C894        C895   1.516       .  S
C895        F899   1.384       .  S
C895        F900   1.383       .  S
C895        F901   1.382       .  S
C898        F902   1.383       .  S
C898        F903   1.382       .  S
C898        F904   1.384       .  S
C905        C906   1.398       .  A
C905        C910   1.407       .  A
C905        H912   1.083       .  S
C906        C907   1.418       .  A
C907        C908   1.410       .  A
C907        C914   1.515   1_565  S
C908        C909   1.400       .  A
C908        H913   1.083       .  S
C909        C910   1.420       .  A
C910        C911   1.516       .  S
C911        F915   1.384       .  S
C911        F916   1.382       .  S
C911        F917   1.382       .  S
C914        F918   1.384       .  S
C914        F919   1.381       .  S
C914        F920   1.384       .  S
C921        C922   1.409       .  A
C921        C926   1.410       .  A
C921        H928   1.083       .  S
C922        C923   1.425       .  A
C923        C924   1.412       .  A
C923        C930   1.521       .  S
C924        C925   1.403       .  A
C924        H929   1.083       .  S
C925        C926   1.417       .  A
C926        C927   1.520       .  S
C927        F931   1.385       .  S
C927        F932   1.382       .  S
C927        F933   1.382       .  S
C930        F934   1.384       .  S
C930        F935   1.382       .  S
C930        F936   1.384       .  S
C937        C938   1.399       .  A
C937        C942   1.404       .  A
C937        H944   1.084       .  S
C938        C939   1.414   1_655  A
C939        C940   1.412       .  A
C939        C946   1.516       .  S
C940        C941   1.405       .  A
C940        H945   1.083       .  S
C941        C942   1.416   1_455  A
C942        C943   1.517       .  S
C943        F947   1.385       .  S
C943        F948   1.383       .  S
C943        F949   1.381       .  S
C946        F950   1.383       .  S
C946        F951   1.383       .  S
C946        F952   1.384       .  S
C953        C954   1.400       .  A
C953        C958   1.397   1_565  A
C953        H960   1.085       .  S
C954        C955   1.419       .  A
C955        C956   1.410   1_565  A
C955        C962   1.513       .  S
C956        C957   1.403       .  A
C956        H961   1.083       .  S
C957        C958   1.415       .  A
C958        C959   1.515       .  S
C959        F963   1.384       .  S
C959        F964   1.383   1_545  S
C959        F965   1.380       .  S
C962        F966   1.383       .  S
C962        F967   1.383   1_565  S
C962        F968   1.384       .  S
C969        C970   1.402       .  A
C969        C974   1.401       .  A
C969        H976   1.084       .  S
C970        C971   1.412       .  A
C971        C972   1.411       .  A
C971        C978   1.514       .  S
C972        C973   1.406       .  A
C972        H977   1.083       .  S
C973        C974   1.411       .  A
C974        C975   1.514       .  S
C975        F979   1.385       .  S
C975        F980   1.378       .  S
C975        F981   1.382       .  S
C978        F982   1.383       .  S
C978        F983   1.383       .  S
C978        F984   1.384       .  S
C985        C986   1.397       .  A
C985        C990   1.401       .  A
C985        H992   1.086       .  S
C986        C987   1.421       .  A
C987        C988   1.409       .  A
C987        C994   1.517       .  S
C988        C989   1.403       .  A
C988        H993   1.085       .  S
C989        C990   1.427       .  A
C990        C991   1.523       .  S
C991        F995   1.384       .  S
C991        F996   1.378       .  S
C991        F997   1.383       .  S
C994        F998   1.383       .  S
C994        F999   1.380       .  S
C994       F1000   1.384       .  S
C1001      C1002   1.407       .  A
C1001      C1006   1.408       .  A
C1001      H1008   1.083       .  S
C1002      C1003   1.422       .  A
C1003      C1004   1.410       .  A
C1003      C1010   1.518       .  S
C1004      C1005   1.400       .  A
C1004      H1009   1.083       .  S
C1005      C1006   1.413       .  A
C1006      C1007   1.516       .  S
C1007      F1011   1.384       .  S
C1007      F1012   1.382       .  S
C1007      F1013   1.383       .  S
C1010      F1014   1.383       .  S
C1010      F1015   1.381       .  S
C1010      F1016   1.385       .  S
C1017      C1018   1.408       .  A
C1017      C1022   1.414       .  A
C1017      H1024   1.083       .  S
C1018      C1019   1.417       .  A
C1019      C1020   1.412       .  A
C1019      C1026   1.516       .  S
C1020      C1021   1.412       .  A
C1020      H1025   1.082       .  S
C1021      C1022   1.425       .  A
C1022      C1023   1.519       .  S
C1023      F1027   1.384       .  S
C1023      F1028   1.383       .  S
C1023      F1029   1.383       .  S
C1026      F1030   1.382       .  S
C1026      F1031   1.383       .  S
C1026      F1032   1.384       .  S
C1033      C1034   1.409       .  A
C1033      C1038   1.401       .  A
C1033      H1040   1.083       .  S
C1034      C1035   1.417       .  A
C1035      C1036   1.418       .  A
C1035      C1042   1.515       .  S
C1036      C1037   1.409       .  A
C1036      H1041   1.083       .  S
C1037      C1038   1.409       .  A
C1038      C1039   1.514       .  S
C1039      F1043   1.384       .  S
C1039      F1044   1.379       .  S
C1039      F1045   1.384       .  S
C1042      F1046   1.382       .  S
C1042      F1047   1.383       .  S
C1042      F1048   1.384       .  S
C1049      C1050   1.400       .  A
C1049      C1054   1.403       .  A
C1049      H1056   1.085       .  S
C1050      C1051   1.415       .  A
C1051      C1052   1.412       .  A
C1051      C1058   1.516       .  S
C1052      C1053   1.405       .  A
C1052      H1057   1.083       .  S
C1053      C1054   1.418       .  A
C1054      C1055   1.519       .  S
C1055      F1059   1.384       .  S
C1055      F1060   1.383       .  S
C1055      F1061   1.383       .  S
C1058      F1062   1.383       .  S
C1058      F1063   1.383       .  S
C1058      F1064   1.384       .  S
C1065      C1066   1.404       .  A
C1065      C1070   1.405       .  A
C1065      H1072   1.084       .  S
C1066      C1067   1.415       .  A
C1067      C1068   1.406       .  A
C1067      C1074   1.514       .  S
C1068      C1069   1.401       .  A
C1068      H1073   1.083       .  S
C1069      C1070   1.413       .  A
C1070      C1071   1.518       .  S
C1071      F1075   1.385       .  S
C1071      F1076   1.382       .  S
C1071      F1077   1.384       .  S
C1074      F1078   1.384       .  S
C1074      F1079   1.382       .  S
C1074      F1080   1.384       .  S
C1081      C1082   1.406       .  A
C1081      C1086   1.399       .  A
C1081      H1088   1.083       .  S
C1082      C1083   1.416       .  A
C1083      C1084   1.414       .  A
C1083      C1090   1.516       .  S
C1084      C1085   1.407       .  A
C1084      H1089   1.083       .  S
C1085      C1086   1.409       .  A
C1086      C1087   1.519       .  S
C1087      F1091   1.385       .  S
C1087      F1092   1.382       .  S
C1087      F1093   1.382       .  S
C1090      F1094   1.383       .  S
C1090      F1095   1.382       .  S
C1090      F1096   1.385       .  S
C1097      C1098   1.407       .  A
C1097      C1102   1.411       .  A
C1097      H1104   1.083       .  S
C1098      C1099   1.415       .  A
C1099      C1100   1.412       .  A
C1099      C1106   1.518       .  S
C1100      C1101   1.415       .  A
C1100      H1105   1.081       .  S
C1101      C1102   1.429       .  A
C1102      C1103   1.523       .  S
C1103      F1107   1.385   1_655  S
C1103      F1108   1.382   1_556  S
C1103      F1109   1.383       .  S
C1106      F1110   1.383       .  S
C1106      F1111   1.383       .  S
C1106      F1112   1.384       .  S
C1113      C1114   1.410       .  A
C1113      C1118   1.409       .  A
C1113      H1120   1.082       .  S
C1114      C1115   1.427       .  A
C1115      C1116   1.407       .  A
C1115      C1122   1.522       .  S
C1116      C1117   1.404       .  A
C1116      H1121   1.083       .  S
C1117      C1118   1.416       .  A
C1118      C1119   1.517       .  S
C1119      F1123   1.385       .  S
C1119      F1124   1.382       .  S
C1119      F1125   1.382       .  S
C1122      F1126   1.381       .  S
C1122      F1127   1.382       .  S
C1122      F1128   1.384       .  S
C1129      C1130   1.407       .  A
C1129      C1134   1.406       .  A
C1129      H1136   1.083       .  S
C1130      C1131   1.425       .  A
C1131      C1132   1.411       .  A
C1131      C1138   1.520       .  S
C1132      C1133   1.402   1_556  A
C1132      H1137   1.083       .  S
C1133      C1134   1.414   1_554  A
C1134      C1135   1.517   1_556  S
C1135      F1139   1.384       .  S
C1135      F1140   1.382       .  S
C1135      F1141   1.384       .  S
C1138      F1142   1.382       .  S
C1138      F1143   1.382       .  S
C1138      F1144   1.385       .  S
C1145      C1146   1.408       .  A
C1145      C1150   1.412   1_455  A
C1145      H1152   1.083       .  S
C1146      C1147   1.411       .  A
C1147      C1148   1.401       .  A
C1147      C1154   1.520       .  S
C1148      C1149   1.407   1_455  A
C1148      H1153   1.083       .  S
C1149      C1150   1.413       .  A
C1150      C1151   1.516       .  S
C1151      F1155   1.384       .  S
C1151      F1156   1.384       .  S
C1151      F1157   1.383       .  S
C1154      F1158   1.383       .  S
C1154      F1159   1.382       .  S
C1154      F1160   1.385       .  S
C1161      C1162   1.402       .  A
C1161      C1166   1.407       .  A
C1161      H1168   1.083       .  S
C1162      C1163   1.413       .  A
C1163      C1164   1.405       .  A
C1163      C1170   1.515       .  S
C1164      C1165   1.402       .  A
C1164      H1169   1.084       .  S
C1165      C1166   1.415       .  A
C1166      C1167   1.517       .  S
C1167      F1171   1.385       .  S
C1167      F1172   1.382       .  S
C1167      F1173   1.383       .  S
C1170      F1174   1.383       .  S
C1170      F1175   1.382       .  S
C1170      F1176   1.384       .  S
C1177      C1178   1.402       .  A
C1177      C1182   1.405       .  A
C1177      H1184   1.084       .  S
C1178      C1179   1.416   1_554  A
C1179      C1180   1.408       .  A
C1179      C1186   1.518       .  S
C1180      C1181   1.403   1_556  A
C1180      H1185   1.083       .  S
C1181      C1182   1.414       .  A
C1182      C1183   1.518       .  S
C1183      F1187   1.385       .  S
C1183      F1188   1.384       .  S
C1183      F1189   1.382       .  S
C1186      F1190   1.382   1_556  S
C1186      F1191   1.385       .  S
C1186      F1192   1.382       .  S
C1193      C1194   1.402       .  A
C1193      C1198   1.404       .  A
C1193      H1200   1.085       .  S
C1194      C1195   1.416       .  A
C1195      C1196   1.414       .  A
C1195      C1202   1.514       .  S
C1196      C1197   1.406       .  A
C1196      H1201   1.083       .  S
C1197      C1198   1.420       .  A
C1198      C1199   1.519       .  S
C1199      F1203   1.384       .  S
C1199      F1204   1.382       .  S
C1199      F1205   1.383       .  S
C1202      F1206   1.381       .  S
C1202      F1207   1.384       .  S
C1202      F1208   1.384       .  S
C1209      C1210   1.404   1_455  A
C1209      C1214   1.411       .  A
C1209      H1216   1.083       .  S
C1210      C1211   1.416       .  A
C1211      C1212   1.410       .  A
C1211      C1218   1.516       .  S
C1212      C1213   1.403   1_655  A
C1212      H1217   1.083       .  S
C1213      C1214   1.415       .  A
C1214      C1215   1.516       .  S
C1215      F1219   1.385       .  S
C1215      F1220   1.382       .  S
C1215      F1221   1.383       .  S
C1218      F1222   1.382       .  S
C1218      F1223   1.383       .  S
C1218      F1224   1.385       .  S
C1225      C1226   1.402       .  A
C1225      C1230   1.407       .  A
C1225      H1232   1.083       .  S
C1226      C1227   1.419       .  A
C1227      C1228   1.410   1_655  A
C1227      C1234   1.518   1_545  S
C1228      C1229   1.404       .  A
C1228      H1233   1.084       .  S
C1229      C1230   1.417   1_455  A
C1230      C1231   1.516       .  S
C1231      F1235   1.384       .  S
C1231      F1236   1.382   1_655  S
C1231      F1237   1.381       .  S
C1234      F1238   1.384       .  S
C1234      F1239   1.384       .  S
C1234      F1240   1.382       .  S
C1241      C1242   1.401       .  A
C1241      C1246   1.412       .  A
C1241      H1248   1.083       .  S
C1242      C1243   1.413       .  A
C1243      C1244   1.409       .  A
C1243      C1250   1.516       .  S
C1244      C1245   1.408       .  A
C1244      H1249   1.083       .  S
C1245      C1246   1.424       .  A
C1246      C1247   1.519       .  S
C1247      F1251   1.385       .  S
C1247      F1252   1.382       .  S
C1247      F1253   1.382       .  S
C1250      F1254   1.382       .  S
C1250      F1255   1.383       .  S
C1250      F1256   1.384       .  S
C1257      C1258   1.402   1_545  A
C1257      C1262   1.413       .  A
C1257      H1264   1.083   1_545  S
C1258      C1259   1.419   1_565  A
C1259      C1260   1.412       .  A
C1259      C1266   1.522   1_545  S
C1260      C1261   1.410       .  A
C1260      H1265   1.083       .  S
C1261      C1262   1.425       .  A
C1262      C1263   1.519       .  S
C1263      F1267   1.384       .  S
C1263      F1268   1.384       .  S
C1263      F1269   1.382       .  S
C1266      F1270   1.381   1_455  S
C1266      F1271   1.383       .  S
C1266      F1272   1.383   1_565  S
C1273      C1274   1.412       .  A
C1273      C1278   1.412       .  A
C1273      H1280   1.082       .  S
C1274      C1275   1.427       .  A
C1275      C1276   1.409       .  A
C1275      C1282   1.522       .  S
C1276      C1277   1.405   1_565  A
C1276      H1281   1.083   1_565  S
C1277      C1278   1.417   1_545  A
C1278      C1279   1.517   1_565  S
C1279      F1283   1.385   1_545  S
C1279      F1284   1.383       .  S
C1279      F1285   1.382       .  S
C1282      F1286   1.381   1_554  S
C1282      F1287   1.383       .  S
C1282      F1288   1.385       .  S
C1289      C1290   1.406       .  A
C1289      C1294   1.415       .  A
C1289      H1296   1.083       .  S
C1290      C1291   1.412       .  A
C1291      C1292   1.406       .  A
C1291      C1298   1.519       .  S
C1292      C1293   1.411       .  A
C1292      H1297   1.083       .  S
C1293      C1294   1.418       .  A
C1294      C1295   1.515       .  S
C1295      F1299   1.385       .  S
C1295      F1300   1.383       .  S
C1295      F1301   1.381       .  S
C1298      F1302   1.383       .  S
C1298      F1303   1.382       .  S
C1298      F1304   1.385       .  S
C1305      C1306   1.401       .  A
C1305      C1310   1.400       .  A
C1305      H1312   1.084       .  S
C1306      C1307   1.409       .  A
C1307      C1308   1.411       .  A
C1307      C1314   1.515       .  S
C1308      C1309   1.408       .  A
C1308      H1313   1.082       .  S
C1309      C1310   1.412       .  A
C1310      C1311   1.517       .  S
C1311      F1315   1.385       .  S
C1311      F1316   1.381       .  S
C1311      F1317   1.382       .  S
C1314      F1318   1.383       .  S
C1314      F1319   1.383       .  S
C1314      F1320   1.383       .  S
C1321      C1322   1.409       .  A
C1321      C1326   1.413   1_554  A
C1321      H1328   1.083       .  S
C1322      C1323   1.410       .  A
C1323      C1324   1.398       .  A
C1323      C1330   1.520       .  S
C1324      C1325   1.408   1_554  A
C1324      H1329   1.082       .  S
C1325      C1326   1.415       .  A
C1326      C1327   1.516       .  S
C1327      F1331   1.384       .  S
C1327      F1332   1.381       .  S
C1327      F1333   1.382       .  S
C1330      F1334   1.382       .  S
C1330      F1335   1.383       .  S
C1330      F1336   1.386       .  S
C1337      C1338   1.400       .  A
C1337      C1342   1.403       .  A
C1337      H1344   1.085       .  S
C1338      C1339   1.415       .  A
C1339      C1340   1.412       .  A
C1339      C1346   1.515       .  S
C1340      C1341   1.405       .  A
C1340      H1345   1.083       .  S
C1341      C1342   1.418       .  A
C1342      C1343   1.519       .  S
C1343      F1347   1.384       .  S
C1343      F1348   1.383       .  S
C1343      F1349   1.383       .  S
C1346      F1350   1.382       .  S
C1346      F1351   1.383       .  S
C1346      F1352   1.385       .  S
C1353      C1354   1.402       .  A
C1353      C1358   1.409   1_545  A
C1353      H1360   1.083   1_545  S
C1354      C1355   1.414       .  A
C1355      C1356   1.401       .  A
C1355      C1362   1.519       .  S
C1356      C1357   1.404       .  A
C1356      H1361   1.085       .  S
C1357      C1358   1.417   1_545  A
C1358      C1359   1.516       .  S
C1359      F1363   1.385       .  S
C1359      F1364   1.383       .  S
C1359      F1365   1.383       .  S
C1362      F1366   1.382       .  S
C1362      F1367   1.381       .  S
C1362      F1368   1.384       .  S
