geometry optimzed in LAMMPS
_audit_creation_date              2020-11-30 
_audit_creation_method            'lammps2cif' 
_symmetry_space_group_name_H-M    'P1' 
_symmetry_Int_Tables_number       1 
_symmetry_cell_setting            triclinic 
loop_ 
_symmetry_equiv_pos_as_xyz 
  x,y,z 
_cell_length_a                    44.76003535 
_cell_length_b                    44.695541013062844 
_cell_length_c                    44.74995481518776 
_cell_angle_alpha                 89.97069493487797 
_cell_angle_beta                  89.97021912041046 
_cell_angle_gamma                 90.0332873636117 
loop_ 
_atom_site_label 
_atom_site_type_symbol 
_atom_site_fract_x 
_atom_site_fract_y 
_atom_site_fract_z 
_atom_site_charge 
N1          N  0.01214360  0.25696466  0.25790149    -0.03500
C2          C  0.01255745  0.22665339  0.26167788    -0.00900
C3          C  0.01789126  0.21274510  0.23458545    -0.23800
C4          C  0.02129888  0.23485032  0.21362691    -0.24000
C5          C  0.01787308  0.26171366  0.22839844    -0.01000
H6          H  0.01895653  0.18890431  0.23049019     0.12800
H7          H  0.02521080  0.23168894  0.18997347     0.12800
O8          O  0.00136016  0.44448258  0.40798440    -0.86500
O9          O  0.99747665  0.44179041  0.57739670    -0.86600
O10         O  0.04727288  0.40812169  0.49147217    -0.88300
O11         O  0.95149760  0.40677516  0.49220613    -0.87100
O12         O  0.91411314  0.44197299  0.49250026    -0.86700
O13         O  0.08429725  0.44341275  0.49299713    -0.88000
O14         O  0.99907502  0.40596703  0.54093030    -0.86500
O15         O  0.00154323  0.40781235  0.44386673    -0.86100
Zr16       Zr  0.99901068  0.43220776  0.49273173     2.84300
O17         O  0.96747741  0.46124692  0.52264400    -1.08100
O18         O  0.02941950  0.46273010  0.46317576    -1.08800
C19         C  0.00255776  0.41680888  0.41641900     1.06600
C20         C  0.99843962  0.41423409  0.56865703     1.06600
C21         C  0.07493346  0.41593019  0.49202345     1.09500
C22         C  0.92382901  0.41468326  0.49203075     1.07300
H23         H  0.04146220  0.44923613  0.53613739     0.32900
O24         O  0.02913666  0.46174508  0.52358132    -1.29000
H25         H  0.95617717  0.44951049  0.44973946     0.32600
O26         O  0.96809971  0.46203756  0.46263785    -1.30700
O27         O  0.99748968  0.53863768  0.57947191    -0.86500
O28         O  0.99780771  0.54202616  0.40943409    -0.88000
O29         O  0.08259065  0.49413804  0.54346352    -0.86600
O30         O  0.91225055  0.49131932  0.54226705    -0.86600
O31         O  0.91318558  0.49337272  0.44324183    -0.86300
O32         O  0.08334775  0.49435269  0.44406089    -0.86100
O33         O  0.04557016  0.57753055  0.49911107    -0.86500
O34         O  0.95009228  0.57726885  0.49131882    -0.86000
O35         O  0.08305631  0.54246740  0.49684960    -0.87000
O36         O  0.91314754  0.54153487  0.49076948    -0.86200
O37         O  0.04510025  0.49431465  0.57838532    -0.86600
O38         O  0.04647440  0.49428125  0.40833448    -0.86300
O39         O  0.95090193  0.49349994  0.40844012    -0.85900
O40         O  0.94922330  0.49044498  0.57782152    -0.86400
O41         O  0.99559525  0.57579742  0.54409635    -0.86700
O42         O  0.99881416  0.57780567  0.44611315    -0.88000
Zr43       Zr  0.99741542  0.49097082  0.55322146     2.83100
Zr44       Zr  0.99878308  0.49292540  0.43356750     2.83500
Zr45       Zr  0.05956154  0.49270785  0.49375759     2.84100
Zr46       Zr  0.93692136  0.49187061  0.49287896     2.83400
Zr47       Zr  0.99780420  0.55225978  0.49455892     2.84200
O48         O  0.96804355  0.52233212  0.46378348    -1.08600
O49         O  0.02798747  0.52163013  0.52397989    -1.08100
C50         C  0.99654794  0.56635874  0.57144089     1.06600
C51         C  0.99837501  0.56952192  0.41841517     1.09200
C52         C  0.07284619  0.49538140  0.57068642     1.06800
C53         C  0.92157961  0.49066713  0.56972908     1.07100
C54         C  0.92309929  0.49381191  0.41600785     1.06700
C55         C  0.07401310  0.49504539  0.41662334     1.06300
C56         C  0.07327687  0.56963246  0.49963711     1.06700
C57         C  0.92258014  0.56896375  0.48979260     1.06200
H58         H  0.04117129  0.53618613  0.45191873     0.32900
O59         O  0.02890158  0.52320491  0.46401419    -1.29700
H60         H  0.95428010  0.53409083  0.53637061     0.32900
O61         O  0.96685843  0.52178195  0.52386007    -1.31000
N62         N  0.03851387  0.72514062  0.72428294    -0.03500
C63         C  0.04579945  0.71845308  0.75299869    -0.00900
C64         C  0.06155038  0.74180441  0.76574734    -0.23800
C65         C  0.06432003  0.76349374  0.74425111    -0.24000
C66         C  0.05014934  0.75269508  0.71909524    -0.01000
H67         H  0.06855938  0.74361319  0.78882258     0.12800
H68         H  0.07357085  0.78565803  0.74732334     0.12800
N69         N  0.97663902  0.26041460  0.73265431    -0.03500
C70         C  0.96833170  0.23134716  0.72978689    -0.00900
C71         C  0.96418417  0.21848018  0.75757410    -0.23800
C72         C  0.97016406  0.24032406  0.77828468    -0.24000
C73         C  0.97801218  0.26570376  0.76245165    -0.01000
H74         H  0.95886970  0.19532286  0.76226009     0.12800
H75         H  0.96960937  0.23781354  0.80233579     0.12800
N76         N  0.98493976  0.73122384  0.26166851    -0.03500
C77         C  0.98164744  0.72831160  0.23153981    -0.00900
C78         C  0.97633385  0.75590343  0.21859034    -0.23800
C79         C  0.97554218  0.77642373  0.24127531    -0.24000
C80         C  0.98071664  0.76083439  0.26737332    -0.01000
H81         H  0.97353642  0.76058544  0.19502311     0.12800
H82         H  0.97196257  0.80026134  0.23899974     0.12800
O83         O  0.99682999  0.04083994  0.41260053    -0.86500
O84         O  0.99983603  0.04602501  0.58294176    -0.86600
O85         O  0.95122929  0.07904138  0.49814352    -0.88300
O86         O  0.04988385  0.07909563  0.49478191    -0.87100
O87         O  0.08546494  0.04231539  0.49298633    -0.86700
O88         O  0.91531522  0.04288972  0.50214277    -0.88000
O89         O  0.99866753  0.08033939  0.54497474    -0.86500
O90         O  0.99811312  0.07769035  0.44832573    -0.86100
Zr91       Zr  0.00036108  0.05451982  0.49733266     2.84300
O92         O  0.03100801  0.02540283  0.52814282    -1.08100
O93         O  0.96949193  0.02365070  0.46835584    -1.08800
C94         C  0.99665175  0.06858104  0.42100529     1.06600
C95         C  0.99871016  0.07320813  0.57288418     1.06600
C96         C  0.92369279  0.07058157  0.50084030     1.09500
C97         C  0.07737490  0.07006445  0.49241047     1.07300
H98         H  0.95845612  0.03761587  0.54151216     0.32900
O99         O  0.97096200  0.02505545  0.52920408    -1.29000
H100        H  0.04174602  0.03547891  0.45385229     0.32600
O101        O  0.02955358  0.02343155  0.46700162    -1.30700
O102        O  0.00445529  0.94781765  0.58629914    -0.86500
O103        O  0.99769902  0.94190639  0.41635743    -0.88000
O104        O  0.91638792  0.99277131  0.54850123    -0.86600
O105        O  0.08601041  0.99964329  0.54469776    -0.86600
O106        O  0.08398786  0.99053576  0.44950318    -0.86300
O107        O  0.91416736  0.99465524  0.45282665    -0.86100
O108        O  0.95140357  0.90896323  0.50026860    -0.86500
O109        O  0.04881010  0.90923667  0.50206343    -0.86000
O110        O  0.91541873  0.94534077  0.49886665    -0.87000
O111        O  0.08506167  0.94555352  0.50120047    -0.86200
O112        O  0.95251045  0.99330383  0.58501093    -0.86600
O113        O  0.94894050  0.99171850  0.41520565    -0.86300
O114        O  0.04779398  0.99170944  0.41314382    -0.85900
O115        O  0.05161125  0.99904771  0.58282615    -0.86400
O116        O  0.00108873  0.91095846  0.55067870    -0.86700
O117        O  0.99972056  0.90775476  0.45473829    -0.88000
Zr118      Zr  0.00153669  0.99607489  0.56032346     2.83100
Zr119      Zr  0.99882897  0.99229401  0.43818292     2.83500
Zr120      Zr  0.94028594  0.99423781  0.50027211     2.84100
Zr121      Zr  0.06000142  0.99413602  0.49777411     2.83400
Zr122      Zr  0.00009259  0.93417262  0.50161079     2.84200
O123        O  0.02948368  0.96289093  0.46907441    -1.08600
O124        O  0.97038657  0.96493254  0.53162738    -1.08100
C125        C  0.00340274  0.92011341  0.57792447     1.06600
C126        C  0.99832694  0.91490084  0.42690766     1.09200
C127        C  0.92507778  0.99177609  0.57589837     1.06800
C128        C  0.07860940  0.00089504  0.57247390     1.07100
C129        C  0.07533559  0.99063993  0.42206152     1.06700
C130        C  0.92175308  0.99326181  0.42505872     1.06300
C131        C  0.92386596  0.91766005  0.49849119     1.06700
C132        C  0.07636851  0.91797562  0.50253524     1.06200
H133        H  0.95692146  0.95044703  0.45857720     0.32900
O134        O  0.96965656  0.96320949  0.47045863    -1.29700
H135        H  0.04398996  0.95321432  0.54274551     0.32900
O136        O  0.03106834  0.96507243  0.53022473    -1.31000
N137        N  0.23653617  0.22923708  0.46664849    -0.03500
C138        C  0.23143309  0.25825064  0.45909998    -0.00900
C139        C  0.25820201  0.27324570  0.45526976    -0.23800
C140        C  0.28051800  0.25290696  0.46061319    -0.24000
C141        C  0.26666107  0.22623769  0.46786232    -0.01000
H142        H  0.26114104  0.29682491  0.45058662     0.12800
H143        H  0.30429901  0.25729691  0.46023027     0.12800
N144        N  0.76335387  0.22766273  0.47492987    -0.03500
C145        C  0.76774326  0.25765174  0.47366059    -0.00900
C146        C  0.74132141  0.27241147  0.46774941    -0.23800
C147        C  0.71963582  0.25085247  0.46573619    -0.24000
C148        C  0.73357465  0.22372445  0.47081031    -0.01000
H149        H  0.73812894  0.29633459  0.46578407     0.12800
H150        H  0.69605627  0.25458623  0.46191354     0.12800
N151        N  0.76377714  0.75845975  0.48832826    -0.03500
C152        C  0.73441255  0.76206526  0.49497165    -0.00900
C153        C  0.71944524  0.73508171  0.49372948    -0.23800
C154        C  0.74023567  0.71389533  0.48646113    -0.24000
C155        C  0.76716817  0.72868022  0.48311342    -0.01000
H156        H  0.69590712  0.73127046  0.49778347     0.12800
H157        H  0.73634019  0.69006586  0.48462081     0.12800
N158        N  0.23313153  0.75754317  0.52468128    -0.03500
C159        C  0.23008667  0.72756347  0.52936131    -0.00900
C160        C  0.25785415  0.71398670  0.53002328    -0.23800
C161        C  0.27865136  0.73602448  0.52540728    -0.24000
C162        C  0.26303621  0.76240166  0.52203071    -0.01000
H163        H  0.26241605  0.69029655  0.53202994     0.12800
H164        H  0.30259237  0.73305095  0.52376853     0.12800
N165        N  0.73632239  0.96982781  0.26289742    -0.03500
C166        C  0.76608450  0.96983769  0.26867390    -0.00900
C167        C  0.78228543  0.96572061  0.24275661    -0.23800
C168        C  0.76193357  0.96363505  0.21999007    -0.24000
C169        C  0.73397573  0.96672547  0.23274914    -0.01000
H170        H  0.80636624  0.96543383  0.24057068     0.12800
H171        H  0.76700539  0.96149054  0.19644051     0.12800
O172        O  0.45196782  0.07929490  0.49319751    -0.86500
O173        O  0.44680779  0.90912402  0.49825192    -0.86600
O174        O  0.41355024  0.99584416  0.44731668    -0.88300
O175        O  0.41483920  0.99855229  0.54497401    -0.87100
O176        O  0.45147787  0.99868267  0.58074772    -0.86700
O177        O  0.44906982  0.99459901  0.41042857    -0.88000
O178        O  0.41218472  0.94701475  0.49890019    -0.86500
O179        O  0.41528465  0.04335178  0.49531241    -0.86100
Zr180      Zr  0.43858857  0.99432039  0.49576822     2.84300
O181        O  0.46786331  0.96351431  0.52614840    -1.08100
O182        O  0.46919772  0.02265605  0.46424908    -1.08800
C183        C  0.42431277  0.07075726  0.49445815     1.06600
C184        C  0.41970828  0.91914255  0.49936313     1.06600
C185        C  0.42175191  0.99669662  0.41962563     1.09500
C186        C  0.42387874  0.00014296  0.57240810     1.07300
H187        H  0.45367748  0.94965951  0.45378101     0.32900
O188        O  0.46684503  0.96183457  0.46575273    -1.29000
H189        H  0.45809559  0.03799978  0.53659038     0.32600
O190        O  0.46989463  0.02475932  0.52429490    -1.30700
O191        O  0.54553373  0.90593355  0.49802411    -0.86500
O192        O  0.55050153  0.07565002  0.49096136    -0.88000
O193        O  0.49547355  0.94119817  0.41134182    -0.86600
O194        O  0.49666612  0.94660094  0.58035744    -0.86600
O195        O  0.50107877  0.04237612  0.57824828    -0.86300
O196        O  0.50059934  0.03791428  0.40813500    -0.86100
O197        O  0.58235251  0.98621755  0.44557500    -0.86500
O198        O  0.58392161  0.99399764  0.54259443    -0.86000
O199        O  0.54615715  0.98508143  0.40953191    -0.87000
O200        O  0.54812192  0.99449582  0.57921371    -0.86200
O201        O  0.49700774  0.90529889  0.44807467    -0.86600
O202        O  0.49974151  0.07579275  0.44288487    -0.86300
O203        O  0.50301002  0.07833840  0.54185499    -0.85900
O204        O  0.49526545  0.90849130  0.54597322    -0.86400
O205        O  0.58197207  0.94217619  0.49772742    -0.86700
O206        O  0.58487993  0.03750363  0.49125741    -0.88000
Zr207      Zr  0.49678918  0.93135120  0.49635514     2.83100
Zr208      Zr  0.50045550  0.05340863  0.49290233     2.83500
Zr209      Zr  0.49783892  0.99040488  0.43458242     2.84100
Zr210      Zr  0.49923972  0.99406787  0.55464667     2.83400
Zr211      Zr  0.55832093  0.99060603  0.49429932     2.84200
O212        O  0.52989489  0.02296241  0.52371232    -1.08600
O213        O  0.52745226  0.96009649  0.46516403    -1.08100
C214        C  0.57310129  0.91479098  0.49902816     1.06600
C215        C  0.57753411  0.06534810  0.49049296     1.09200
C216        C  0.49585108  0.91375758  0.42041603     1.06800
C217        C  0.49560500  0.91875449  0.57299384     1.07100
C218        C  0.50240297  0.06979017  0.56951714     1.06700
C219        C  0.50061137  0.06577652  0.41574574     1.06300
C220        C  0.57373210  0.98393392  0.41813837     1.06700
C221        C  0.57560793  0.99513972  0.57027053     1.06200
H222        H  0.54206779  0.03232117  0.45012494     0.32900
O223        O  0.52922082  0.02098868  0.46322897    -1.29700
H224        H  0.54022329  0.94958047  0.53857208     0.32900
O225        O  0.52805016  0.96172390  0.52558186    -1.31000
N226        N  0.26573821  0.01328715  0.73261122    -0.03500
C227        C  0.26971920  0.00922230  0.76245418    -0.00900
C228        C  0.24274142  0.00999839  0.77736672    -0.23800
C229        C  0.22120283  0.01460715  0.75619221    -0.24000
C230        C  0.23572339  0.01667600  0.72899302    -0.01000
H231        H  0.23915319  0.00716619  0.80112122     0.12800
H232        H  0.19735199  0.01544895  0.76007947     0.12800
N233        N  0.73405607  0.99023002  0.73028766    -0.03500
C234        C  0.76331143  0.98274321  0.72772433    -0.00900
C235        C  0.77673715  0.98100951  0.75542849    -0.23800
C236        C  0.75494659  0.98683372  0.77600433    -0.24000
C237        C  0.72893445  0.99209238  0.76020317    -0.01000
H238        H  0.80000222  0.97637611  0.76010371     0.12800
H239        H  0.75766512  0.98696773  0.80003735     0.12800
N240        N  0.26255446  0.01871843  0.26230397    -0.03500
C241        C  0.26739554  0.02550406  0.23309042    -0.00900
C242        C  0.24048152  0.02704751  0.21799218    -0.23800
C243        C  0.21842909  0.02106039  0.23850260    -0.24000
C244        C  0.23256611  0.01584967  0.26542237    -0.01000
H245        H  0.23732896  0.03067936  0.19429096     0.12800
H246        H  0.19467998  0.01990889  0.23414005     0.12800
O247        O  0.58710641  0.99614375  0.04568992    -0.86500
O248        O  0.41652586  0.99780122  0.05015928    -0.86600
O249        O  0.50209730  0.04584198  0.08403704    -0.88300
O250        O  0.50300386  0.94830215  0.08310083    -0.87100
O251        O  0.50478833  0.91228704  0.04698823    -0.86700
O252        O  0.49930852  0.08225762  0.04825074    -0.88000
O253        O  0.45460654  0.99799369  0.08421420    -0.86500
O254        O  0.55095147  0.99785193  0.08180771    -0.86100
Zr255      Zr  0.50215902  0.99746059  0.05848173     2.84300
O256        O  0.47047026  0.96765645  0.02956501    -1.08100
O257        O  0.53186566  0.02799315  0.02812763    -1.08800
C258        C  0.57848923  0.99663286  0.07334151     1.06600
C259        C  0.42669411  0.99799321  0.07731590     1.06600
C260        C  0.49984391  0.07348075  0.07581828     1.09500
C261        C  0.50492785  0.92067498  0.07466695     1.07300
H262        H  0.45864162  0.04005125  0.04247405     0.32900
O263        O  0.47071258  0.02764691  0.02958110    -1.29000
H264        H  0.54490609  0.95511564  0.03964485     0.32600
O265        O  0.53215548  0.96778692  0.02769187    -1.30700
O266        O  0.41418296  0.99807419  0.95095749    -0.86500
O267        O  0.58365853  0.99862269  0.94613147    -0.88000
O268        O  0.45281550  0.08296983  0.00065270    -0.86600
O269        O  0.45219970  0.91335561  0.00276622    -0.86600
O270        O  0.54843579  0.91377995  0.99411849    -0.86300
O271        O  0.54797164  0.08319621  0.00093510    -0.86100
O272        O  0.49814267  0.04707962  0.91447514    -0.86500
O273        O  0.50090594  0.94962842  0.91483978    -0.86000
O274        O  0.49790304  0.08351862  0.95054119    -0.87000
O275        O  0.49965660  0.91303444  0.95042912    -0.86200
O276        O  0.41571539  0.04781279  0.99983286    -0.86600
O277        O  0.58542284  0.04803461  0.99856618    -0.86300
O278        O  0.58564756  0.94919687  0.99308641    -0.85900
O279        O  0.41495386  0.94875387  0.00155518    -0.86400
O280        O  0.45106906  0.99973885  0.91564759    -0.86700
O281        O  0.54552113  0.99774003  0.91197684    -0.88000
Zr282      Zr  0.43918873  0.99793993  0.00003763     2.83100
Zr283      Zr  0.56186352  0.99839639  0.99688306     2.83500
Zr284      Zr  0.50040874  0.05801455  0.99915797     2.84100
Zr285      Zr  0.50042179  0.93799352  0.99881555     2.83400
Zr286      Zr  0.49923207  0.99842790  0.93934523     2.84200
O287        O  0.53016249  0.96825648  0.96825705    -1.08600
O288        O  0.46922377  0.02832069  0.96968528    -1.08100
C289        C  0.42341473  0.99930162  0.92351558     1.06600
C290        C  0.57339403  0.99788936  0.91901002     1.09200
C291        C  0.42510397  0.07524878  0.00060365     1.06800
C292        C  0.42454759  0.92149705  0.00337072     1.07100
C293        C  0.57601529  0.92188633  0.99234191     1.06700
C294        C  0.57557991  0.07521736  0.00061659     1.06300
C295        C  0.49729441  0.07470001  0.92298050     1.06700
C296        C  0.50058515  0.92190672  0.92294792     1.06200
H297        H  0.54248899  0.04169779  0.95508703     0.32900
O298        O  0.53064038  0.02893426  0.96788492    -1.29700
H299        H  0.45663282  0.95516259  0.95685452     0.32900
O300        O  0.46910409  0.96773721  0.96922247    -1.31000
N301        N  0.50181197  0.23424637  0.23426624    -0.03500
C302        C  0.50470199  0.23080540  0.26432872    -0.00900
C303        C  0.50576448  0.25826995  0.27838783    -0.23800
C304        C  0.50226296  0.27945999  0.25653797    -0.24000
C305        C  0.49959759  0.26429746  0.22974774    -0.01000
H306        H  0.50777770  0.26236704  0.30213879     0.12800
H307        H  0.50129532  0.30342708  0.25983968     0.12800
N308        N  0.51572433  0.75597937  0.23002494    -0.03500
C309        C  0.52209108  0.72681739  0.22431503    -0.00900
C310        C  0.52329371  0.71054809  0.25056742    -0.23800
C311        C  0.51808594  0.73031037  0.27335151    -0.24000
C312        C  0.51379978  0.75796707  0.26027308    -0.01000
H313        H  0.52683968  0.68669917  0.25281265     0.12800
H314        H  0.51746987  0.72512848  0.29697317     0.12800
N315        N  0.51612373  0.76337967  0.76311855    -0.03500
C316        C  0.52134352  0.73351481  0.76517762    -0.00900
C317        C  0.51999340  0.72028191  0.73728250    -0.23800
C318        C  0.51397819  0.74257224  0.71727934    -0.24000
C319        C  0.51158021  0.76859034  0.73364262    -0.01000
H320        H  0.52210139  0.69671338  0.73217614     0.12800
H321        H  0.51117495  0.74008244  0.69338983     0.12800
N322        N  0.48320283  0.22796408  0.75824841    -0.03500
C323        C  0.47665843  0.22349713  0.72901988    -0.00900
C324        C  0.46771142  0.24978137  0.71552822    -0.23800
C325        C  0.46842192  0.27134444  0.73727812    -0.24000
C326        C  0.47774787  0.25740708  0.76322903    -0.01000
H327        H  0.46193436  0.25298334  0.69226533     0.12800
H328        H  0.46336304  0.29484681  0.73440001     0.12800
O329        O  0.99870567  0.41283818  0.04439053    -0.86500
O330        O  0.99863768  0.58290011  0.04396088    -0.86600
O331        O  0.04545333  0.49879687  0.08132553    -0.88300
O332        O  0.94919685  0.49699774  0.07827518    -0.87100
O333        O  0.91341146  0.49698660  0.04167047    -0.86700
O334        O  0.08248809  0.49948690  0.04587990    -0.88000
O335        O  0.99566538  0.54546502  0.07892504    -0.86500
O336        O  0.99965112  0.44974831  0.07998104    -0.86100
Zr337      Zr  0.99802920  0.49754825  0.05445779     2.84300
O338        O  0.96900298  0.52862930  0.02410598    -1.08100
O339        O  0.02865756  0.46723918  0.02526607    -1.08800
C340        C  0.99956153  0.42205748  0.07188228     1.06600
C341        C  0.99640242  0.57317891  0.07112222     1.06600
C342        C  0.07316400  0.49974683  0.07328066     1.09500
C343        C  0.92181096  0.49713379  0.06930995     1.07300
H344        H  0.04095448  0.54088923  0.03841034     0.32900
O345        O  0.02878271  0.52855093  0.02554759    -1.29000
H346        H  0.95514932  0.45476141  0.03639339     0.32600
O347        O  0.96793372  0.46724442  0.02426673    -1.30700
O348        O  0.00287709  0.58295566  0.94484996    -0.86500
O349        O  0.99966186  0.41342771  0.94492068    -0.88000
O350        O  0.08431807  0.54602594  0.99605302    -0.86600
O351        O  0.91516579  0.54716472  0.99604090    -0.86600
O352        O  0.91415939  0.45092082  0.98970066    -0.86300
O353        O  0.08360614  0.44985971  0.99891665    -0.86100
O354        O  0.04913928  0.50020531  0.91140183    -0.86500
O355        O  0.95212543  0.49608274  0.90916769    -0.86000
O356        O  0.08517147  0.49919121  0.94779086    -0.87000
O357        O  0.91511972  0.49796051  0.94454055    -0.86200
O358        O  0.04906209  0.58333080  0.99577387    -0.86600
O359        O  0.04785302  0.41293812  0.99748585    -0.86300
O360        O  0.94933772  0.41353588  0.99075802    -0.85900
O361        O  0.95092764  0.58407543  0.99569066    -0.86400
O362        O  0.00136429  0.54580705  0.90952243    -0.86700
O363        O  0.00139692  0.45078307  0.90968244    -0.88000
Zr364      Zr  0.99970286  0.55935575  0.99458178     2.83100
Zr365      Zr  0.99881933  0.43692464  0.99469002     2.83500
Zr366      Zr  0.05926936  0.49803792  0.99615623     2.84100
Zr367      Zr  0.93920562  0.49863747  0.99358856     2.83400
Zr368      Zr  0.00016179  0.49834965  0.93510560     2.84200
O369        O  0.96962507  0.46802448  0.96439557    -1.08600
O370        O  0.03005213  0.52848236  0.96540026    -1.08100
C371        C  0.00322866  0.57342689  0.91747115     1.06600
C372        C  0.00079237  0.42310304  0.91760734     1.09200
C373        C  0.07636964  0.57373185  0.99569401     1.06800
C374        C  0.92357246  0.57475638  0.99692391     1.07100
C375        C  0.92214452  0.42326332  0.98860675     1.06700
C376        C  0.07515124  0.42229580  0.99947959     1.06300
C377        C  0.07661572  0.50055127  0.92017252     1.06700
C378        C  0.92439883  0.49591333  0.91723606     1.06200
H379        H  0.04271113  0.45530202  0.95301922     0.32900
O380        O  0.02986351  0.46754650  0.96531186    -1.29700
H381        H  0.95712376  0.54185150  0.95103533     0.32900
O382        O  0.96936312  0.52946293  0.96379804    -1.31000
N383        N  0.76234274  0.50024764  0.22713114    -0.03500
C384        C  0.76686053  0.49659433  0.25694949    -0.00900
C385        C  0.74000850  0.49583130  0.27206965    -0.23800
C386        C  0.71804502  0.49883084  0.25099738    -0.24000
C387        C  0.73217651  0.50098108  0.22362243    -0.01000
H388        H  0.73680945  0.49337518  0.29591568     0.12800
H389        H  0.69421394  0.49895700  0.25509595     0.12800
N390        N  0.23544298  0.49876101  0.22971245    -0.03500
C391        C  0.26463646  0.49279847  0.22404889    -0.00900
C392        C  0.28087978  0.49085665  0.25012514    -0.23800
C393        C  0.26110235  0.49559249  0.27295765    -0.24000
C394        C  0.23345426  0.50054165  0.26001390    -0.01000
H395        H  0.30457057  0.48650847  0.25223367     0.12800
H396        H  0.26621191  0.49485264  0.29657944     0.12800
N397        N  0.23295903  0.51753723  0.75826356    -0.03500
C398        C  0.26304746  0.52139562  0.76032348    -0.00900
C399        C  0.27552556  0.52628441  0.73249616    -0.23800
C400        C  0.25263796  0.52510862  0.71234140    -0.24000
C401        C  0.22701348  0.51969501  0.72859101    -0.01000
H402        H  0.29893730  0.52962708  0.72741000     0.12800
H403        H  0.25448109  0.52730244  0.68832181     0.12800
N404        N  0.76503754  0.46848589  0.76094117    -0.03500
C405        C  0.76828234  0.47107015  0.73083341    -0.00900
C406        C  0.74107332  0.46800788  0.71665848    -0.23800
C407        C  0.72019418  0.46359750  0.73863510    -0.24000
C408        C  0.73534362  0.46395162  0.76555016    -0.01000
H409        H  0.73683907  0.46940552  0.69289148     0.12800
H410        H  0.69633690  0.46129982  0.73543681     0.12800
N411        N  0.26065554  0.26031167  0.99687109    -0.03500
C412        C  0.23090875  0.26325722  0.00148251    -0.00900
C413        C  0.21717689  0.23552859  0.00139194    -0.23800
C414        C  0.23936144  0.21473376  0.99725544    -0.24000
C415        C  0.26576351  0.23053776  0.99492807    -0.01000
H416        H  0.19361466  0.23094302  0.00431878     0.12800
H417        H  0.23670993  0.19066758  0.99696540     0.12800
O418        O  0.49106765  0.44602690  0.07778438    -0.86500
O419        O  0.49816287  0.44323880  0.90785523    -0.86600
O420        O  0.44625138  0.41112179  0.99271579    -0.88300
O421        O  0.54290612  0.40741081  0.99703395    -0.87100
O422        O  0.57945742  0.44314237  0.99795165    -0.86700
O423        O  0.41173911  0.44863929  0.99016464    -0.88000
O424        O  0.49886683  0.40829548  0.94564475    -0.86500
O425        O  0.49061959  0.41005724  0.04113679    -0.86100
Zr426      Zr  0.49559856  0.43428654  0.99297586     2.84300
O427        O  0.52725944  0.46284998  0.96281190    -1.08100
O428        O  0.46596704  0.46598640  0.02174292    -1.08800
C429        C  0.48918806  0.41854265  0.06861667     1.06600
C430        C  0.49897680  0.41600737  0.91790275     1.06600
C431        C  0.41904860  0.42076654  0.99165780     1.09500
C432        C  0.57050448  0.41570131  0.99896876     1.07300
H433        H  0.45471261  0.45231516  0.94817491     0.32900
O434        O  0.46739760  0.46456717  0.96066926    -1.29000
H435        H  0.53721258  0.45093024  0.03756248     0.32600
O436        O  0.52555258  0.46351366  0.02443951    -1.30700
O437        O  0.50475902  0.54268319  0.90627029    -0.86500
O438        O  0.49779149  0.54506013  0.07652108    -0.88000
O439        O  0.41455278  0.49879289  0.94183105    -0.86600
O440        O  0.58343173  0.48748172  0.94750688    -0.86600
O441        O  0.58064052  0.49522033  0.04182835    -0.86300
O442        O  0.41130232  0.49427777  0.03692687    -0.86100
O443        O  0.45093698  0.58104014  0.99146015    -0.86500
O444        O  0.54844485  0.57748569  0.99239884    -0.86000
O445        O  0.41423235  0.54552628  0.98995135    -0.87000
O446        O  0.58337873  0.54010392  0.99304506    -0.86200
O447        O  0.45076405  0.49772903  0.90551099    -0.86600
O448        O  0.44524631  0.49448650  0.07506550    -0.86300
O449        O  0.54454215  0.49534243  0.07834041    -0.85900
O450        O  0.54978779  0.48785319  0.90880985    -0.86400
O451        O  0.50385834  0.57875789  0.94296730    -0.86700
O452        O  0.50152326  0.57977973  0.03879444    -0.88000
Zr453      Zr  0.49945702  0.49345685  0.93058644     2.83100
Zr454      Zr  0.49553559  0.49524861  0.05335462     2.83500
Zr455      Zr  0.43808175  0.49642426  0.99009247     2.84100
Zr456      Zr  0.55664827  0.49247585  0.99395806     2.83400
Zr457      Zr  0.49902287  0.55450861  0.99115280     2.84200
O458        O  0.52701035  0.52399904  0.02293750    -1.08600
O459        O  0.46933573  0.52524182  0.95971284    -1.08100
C460        C  0.50606292  0.57014344  0.91555599     1.06600
C461        C  0.50062664  0.57215262  0.06656101     1.09200
C462        C  0.42324571  0.49934187  0.91441831     1.06800
C463        C  0.57657618  0.48551748  0.91966435     1.07100
C464        C  0.57204402  0.49595439  0.06923145     1.06700
C465        C  0.41823713  0.49329348  0.06486096     1.06300
C466        C  0.42312363  0.57297414  0.99128654     1.06700
C467        C  0.57570882  0.56794901  0.99242563     1.06200
H468        H  0.45471879  0.53902846  0.03356784     0.32900
O469        O  0.46725319  0.52614448  0.02166055    -1.29700
H470        H  0.54291985  0.53468573  0.95001275     0.32900
O471        O  0.52916946  0.52308203  0.96197323    -1.31000
N472        N  0.73166284  0.73002347  0.98449738    -0.03500
C473        C  0.72770788  0.75991357  0.98074834    -0.00900
C474        C  0.75481801  0.77468356  0.98097967    -0.23800
C475        C  0.77626162  0.75346556  0.98576339    -0.24000
C476        C  0.76152729  0.72645874  0.98821515    -0.01000
H477        H  0.75845366  0.79852617  0.97879040     0.12800
H478        H  0.80005435  0.75729794  0.98771072     0.12800
N479        N  0.26489440  0.73346532  0.00456621    -0.03500
C480        C  0.26906719  0.76318633  0.00916504    -0.00900
C481        C  0.24256251  0.77860998  0.00555896    -0.23800
C482        C  0.22117700  0.75777887  0.99892852    -0.24000
C483        C  0.23542271  0.73036859  0.99810516    -0.01000
H484        H  0.23925011  0.80253482  0.00724733     0.12800
H485        H  0.19765778  0.76209404  0.99535465     0.12800
N486        N  0.73492347  0.26249503  0.99386560    -0.03500
C487        C  0.76365993  0.26674704  0.98523101    -0.00900
C488        C  0.77831453  0.23963570  0.98295886    -0.23800
C489        C  0.75786016  0.21789537  0.99015406    -0.24000
C490        C  0.73147273  0.23248586  0.99688211    -0.01000
H491        H  0.80152067  0.23611927  0.97714657     0.12800
H492        H  0.76169674  0.19398975  0.99015129     0.12800
C493        C  0.64470163  0.37609185  0.01305569    -0.11400
C494        C  0.63936267  0.34808651  0.00000719     0.15200
C495        C  0.61030245  0.34122110  0.98975371     0.02100
C496        C  0.58806478  0.36328987  0.99055434    -0.15700
C497        C  0.59378979  0.39205221  0.00199046    -0.10500
C498        C  0.62220669  0.39777953  0.01482895     0.08800
C499        C  0.66448217  0.32651682  0.99795533     0.09800
S500        S  0.59997296  0.30489589  0.97532966    -0.24900
H501        H  0.56615507  0.35793922  0.98182798     0.20100
S502        S  0.63095598  0.43158026  0.03507278    -0.30600
H503        H  0.66659942  0.38102003  0.02214750     0.10400
C504        C  0.67794185  0.31922170  0.97037061     0.03600
C505        C  0.70170927  0.29870573  0.96973134    -0.12900
C506        C  0.71193105  0.28493866  0.99598369    -0.08500
C507        C  0.69832840  0.29221518  0.02349539     0.07000
C508        C  0.67498640  0.31304084  0.02422361    -0.13600
S509        S  0.66473163  0.33581550  0.93601424    -0.30600
H510        H  0.71198659  0.29266728  0.94869484     0.11300
S511        S  0.70960122  0.27563635  0.05835863    -0.27700
H512        H  0.66467235  0.31858590  0.04542499     0.08500
H513        H  0.60298393  0.43314227  0.04940050     0.27000
H514        H  0.68511467  0.32142815  0.91688516     0.21800
H515        H  0.73940309  0.27056625  0.05004003     0.27100
H516        H  0.62333198  0.28826697  0.98808878     0.15900
C517        C  0.32688056  0.68025684  0.02531896    -0.11400
C518        C  0.33399659  0.66789087  0.99735816     0.15200
C519        C  0.31769822  0.67708907  0.97194741     0.02100
C520        C  0.29485476  0.69834242  0.97500801    -0.15700
C521        C  0.28764906  0.71064077  0.00293556    -0.10500
C522        C  0.30386898  0.70136843  0.02838088     0.08800
C523        C  0.35723118  0.64419502  0.99568162     0.09800
S524        S  0.32531920  0.66293396  0.93497790    -0.24900
H525        H  0.28267091  0.70563234  0.95541214     0.20100
S526        S  0.29583795  0.71511046  0.06534496    -0.30600
H527        H  0.33908213  0.67306666  0.04496345     0.10400
C528        C  0.38661134  0.65004261  0.98599022     0.03600
C529        C  0.40752400  0.62652829  0.98472839    -0.12900
C530        C  0.39978964  0.59703190  0.99295401    -0.08500
C531        C  0.36999645  0.59158004  0.00271387     0.07000
C532        C  0.34928797  0.61501769  0.00370115    -0.13600
S533        S  0.39743026  0.68746983  0.97527527    -0.30600
H534        H  0.42999661  0.63119259  0.97710573     0.11300
S535        S  0.35680811  0.55579517  0.01568448    -0.27700
H536        H  0.32666549  0.61052807  0.01113362     0.08500
H537        H  0.26551740  0.72122647  0.06013303     0.27000
H538        H  0.42712243  0.68067841  0.96750825     0.21800
H539        H  0.38073766  0.55214505  0.03574956     0.27100
H540        H  0.33415584  0.63408329  0.94376335     0.15900
C541        C  0.66851570  0.67824302  0.96369666    -0.11400
C542        C  0.66608265  0.66084607  0.98968543     0.15200
C543        C  0.68541818  0.66654984  0.01396396     0.02100
C544        C  0.70670908  0.68937515  0.01159482    -0.15700
C545        C  0.70920473  0.70687271  0.98567343    -0.10500
C546        C  0.68991313  0.70102357  0.96135667     0.08800
C547        C  0.64303043  0.63714321  0.99074275     0.09800
S548        S  0.68397182  0.64617279  0.04882401    -0.24900
H549        H  0.72136623  0.69380901  0.03030259     0.20100
S550        S  0.69214937  0.72094284  0.92642797    -0.30600
H551        H  0.65378775  0.67381882  0.94498597     0.10400
C552        C  0.61499686  0.64223749  0.00396018     0.03600
C553        C  0.59374013  0.61918790  0.00445480    -0.12900
C554        C  0.59971719  0.59101703  0.99168533    -0.08500
C555        C  0.62801661  0.58619762  0.97814328     0.07000
C556        C  0.64928697  0.60920670  0.97804143    -0.13600
S557        S  0.60629941  0.67816884  0.02016863    -0.30600
H558        H  0.57235689  0.62315135  0.01502939     0.11300
S559        S  0.63822398  0.55193797  0.95948371    -0.27700
H560        H  0.67083264  0.60545784  0.96762992     0.08500
H561        H  0.72302429  0.72648179  0.92787625     0.27000
H562        H  0.57552373  0.67295250  0.02382197     0.21800
H563        H  0.61099232  0.54931408  0.94401453     0.27100
H564        H  0.66780603  0.62113123  0.03904489     0.15900
C565        C  0.34349578  0.38122181  0.00082916    -0.11400
C566        C  0.35104717  0.35166759  0.99354514     0.15200
C567        C  0.38063141  0.34525791  0.98461855     0.02100
C568        C  0.40186664  0.36825866  0.98366758    -0.15700
C569        C  0.39468318  0.39786518  0.99176704    -0.10500
C570        C  0.36474587  0.40421906  0.00023184     0.08800
C571        C  0.32738713  0.32830644  0.99477701     0.09800
S572        S  0.39295214  0.30816232  0.97456770    -0.24900
H573        H  0.42441138  0.36274098  0.97678950     0.20100
S574        S  0.35210969  0.44065010  0.01185993    -0.30600
H575        H  0.32070761  0.38641957  0.00718025     0.10400
C576        C  0.31245457  0.32122890  0.02171023     0.03600
C577        C  0.28996331  0.29932073  0.02166153    -0.12900
C578        C  0.28255387  0.28384015  0.99548620    -0.08500
C579        C  0.29720989  0.29114991  0.96851946     0.07000
C580        C  0.31934190  0.31328875  0.96843427    -0.13600
S581        S  0.32271369  0.33921392  0.05638694    -0.30600
H582        H  0.27843226  0.29363549  0.04215089     0.11300
S583        S  0.28838178  0.27347149  0.93341491    -0.27700
H584        H  0.33033673  0.31897894  0.94760965     0.08500
H585        H  0.35618219  0.45317890  0.98327467     0.27000
H586        H  0.30257382  0.32359975  0.07482265     0.21800
H587        H  0.25928525  0.26438784  0.94089491     0.27100
H588        H  0.37416404  0.29286481  0.99460535     0.15900
C589        C  0.67797029  0.44410295  0.82394215    -0.11400
C590        C  0.67799222  0.47013399  0.84128328     0.15200
C591        C  0.70080697  0.49163018  0.83708117     0.02100
C592        C  0.72141005  0.48774766  0.81375694    -0.15700
C593        C  0.71956918  0.46293661  0.79459013    -0.10500
C594        C  0.69836973  0.44023203  0.80069103     0.08800
C595        C  0.65226917  0.47493126  0.86143898     0.09800
S596        S  0.70371258  0.52534778  0.85914610    -0.24900
H597        H  0.73760026  0.50522040  0.80927745     0.20100
S598        S  0.69481771  0.40637605  0.77887719    -0.30600
H599        H  0.66086293  0.42730381  0.82757370     0.10400
C600        C  0.62839146  0.49383544  0.85330100     0.03600
C601        C  0.60341321  0.49625427  0.87216398    -0.12900
C602        C  0.60188119  0.48013023  0.89903488    -0.08500
C603        C  0.62578059  0.46066312  0.90669086     0.07000
C604        C  0.65058426  0.45840206  0.88788971    -0.13600
S605        S  0.62965373  0.51462089  0.81870771    -0.30600
H606        H  0.58533681  0.51123987  0.86632943     0.11300
S607        S  0.62597742  0.43732038  0.93958852    -0.27700
H608        H  0.66862363  0.44331385  0.89371945     0.08500
H609        H  0.72257085  0.40746664  0.76441623     0.27000
H610        H  0.60148922  0.52826244  0.82154988     0.21800
H611        H  0.59514779  0.43166367  0.93918300     0.27100
H612        H  0.68427836  0.51711095  0.88237695     0.15900
C613        C  0.30775473  0.49142457  0.82536635    -0.11400
C614        C  0.32707107  0.51559740  0.83045778     0.15200
C615        C  0.32335282  0.54237819  0.81420140     0.02100
C616        C  0.30046373  0.54426301  0.79317069    -0.15700
C617        C  0.28167551  0.51978472  0.78733279    -0.10500
C618        C  0.28538991  0.49305575  0.80365809     0.08800
C619        C  0.35150680  0.51166377  0.85206314     0.09800
S620        S  0.34767176  0.57441004  0.81813613    -0.24900
H621        H  0.29814607  0.56458666  0.78013285     0.20100
S622        S  0.26408593  0.45965159  0.79636979    -0.30600
H623        H  0.31089803  0.47074932  0.83763729     0.10400
C624        C  0.35082901  0.52556663  0.88020845     0.03600
C625        C  0.37464084  0.52110304  0.89991341    -0.12900
C626        C  0.39916812  0.50295583  0.89210793    -0.08500
C627        C  0.39935987  0.48862504  0.86397026     0.07000
C628        C  0.37564262  0.49330321  0.84421780    -0.13600
S629        S  0.31956047  0.54871059  0.89113218    -0.30600
H630        H  0.37425799  0.53204400  0.92149529     0.11300
S631        S  0.42817938  0.46298355  0.85255625    -0.27700
H632        H  0.37579426  0.48229309  0.82263942     0.08500
H633        H  0.26441057  0.46268440  0.76509531     0.27000
H634        H  0.33004151  0.55598308  0.91986204     0.21800
H635        H  0.43055490  0.44958587  0.88087889     0.27100
H636        H  0.37332521  0.55871802  0.82711833     0.15900
C637        C  0.37119965  0.47903502  0.13490539    -0.11400
C638        C  0.34239170  0.48431444  0.12394055     0.15200
C639        C  0.33842856  0.49154003  0.09363328     0.02100
C640        C  0.36348828  0.49458524  0.07526017    -0.15700
C641        C  0.39279095  0.49026683  0.08622048    -0.10500
C642        C  0.39631095  0.48171178  0.11656255     0.08800
C643        C  0.31761648  0.48512443  0.14561752     0.09800
S644        S  0.30205650  0.49709830  0.07711671    -0.24900
H645        H  0.35980124  0.50021862  0.05204476     0.20100
S646        S  0.43172665  0.47286594  0.13341548    -0.30600
H647        H  0.37418594  0.47337214  0.15827636     0.10400
C648        C  0.30859668  0.45925891  0.16116678     0.03600
C649        C  0.28933707  0.46211602  0.18566576    -0.12900
C650        C  0.27877330  0.49027945  0.19453800    -0.08500
C651        C  0.28649443  0.51588883  0.17784354     0.07000
C652        C  0.30563488  0.51301850  0.15338310    -0.13600
S653        S  0.32238354  0.42286582  0.15034979    -0.30600
H654        H  0.28348678  0.44260649  0.19879074     0.11300
S655        S  0.27450137  0.55298945  0.18792426    -0.27700
H656        H  0.31274756  0.53291360  0.14147304     0.08500
H657        H  0.44179054  0.50264875  0.13164193     0.27000
H658        H  0.30538506  0.40623487  0.17094701     0.21800
H659        H  0.27902539  0.54935280  0.21879939     0.27100
H660        H  0.28607829  0.47917829  0.09743216     0.15900
C661        C  0.62344680  0.48224692  0.13527134    -0.11400
C662        C  0.64631054  0.50288393  0.12917445     0.15200
C663        C  0.64409687  0.52168885  0.10397174     0.02100
C664        C  0.61915809  0.51927001  0.08541056    -0.15700
C665        C  0.59634709  0.49841316  0.09124703    -0.10500
C666        C  0.59864380  0.47961883  0.11645351     0.08800
C667        C  0.67132887  0.50498335  0.15044386     0.09800
S668        S  0.67181868  0.54950777  0.09436668    -0.24900
H669        H  0.61759072  0.53377201  0.06603813     0.20100
S670        S  0.57153387  0.45114095  0.12512786    -0.30600
H671        H  0.62510305  0.46790700  0.15474443     0.10400
C672        C  0.67242087  0.52804467  0.17173723     0.03600
C673        C  0.69427204  0.52718949  0.19399796    -0.12900
C674        C  0.71509439  0.50372773  0.19550337    -0.08500
C675        C  0.71485845  0.48137399  0.17313539     0.07000
C676        C  0.69311741  0.48245791  0.15067072    -0.13600
S677        S  0.64479361  0.55748479  0.17184508    -0.30600
H678        H  0.69424293  0.54411068  0.21132058     0.11300
S679        S  0.73956220  0.44956783  0.17318580    -0.27700
H680        H  0.69222573  0.46481002  0.13408725     0.08500
H681        H  0.56624430  0.44276745  0.09529712     0.27000
H682        H  0.65985026  0.57632917  0.19201558     0.21800
H683        H  0.74050513  0.44622103  0.20438754     0.27100
H684        H  0.69580236  0.53751339  0.11063574     0.15900
C685        C  0.85052214  0.61240474  0.01699353    -0.11400
C686        C  0.85037684  0.63645454  0.99696223     0.15200
C687        C  0.87589091  0.64200837  0.97911877     0.02100
C688        C  0.90004096  0.62213810  0.98023494    -0.15700
C689        C  0.89955628  0.59720386  0.99927446    -0.10500
C690        C  0.87485555  0.59295490  0.01858226     0.08800
C691        C  0.82372200  0.65591036  0.99618852     0.09800
S692        S  0.87903093  0.67377463  0.95439410    -0.24900
H693        H  0.91903279  0.62578101  0.96563908     0.20100
S694        S  0.87313703  0.56343299  0.04603874    -0.30600
H695        H  0.83145351  0.60874857  0.03149117     0.10400
C696        C  0.80410766  0.65654072  0.97150564     0.03600
C697        C  0.78109544  0.67789699  0.97071445    -0.12900
C698        C  0.77758334  0.69838828  0.99415557    -0.08500
C699        C  0.79556694  0.69578909  0.01993172     0.07000
C700        C  0.81847517  0.67469311  0.02062715    -0.13600
S701        S  0.80911914  0.63097812  0.94067637    -0.30600
H702        H  0.76723790  0.68007110  0.95100118     0.11300
S703        S  0.79164912  0.72013013  0.05185679    -0.27700
H704        H  0.83310755  0.67370178  0.03989642     0.08500
H705        H  0.90388729  0.56386507  0.05252418     0.27000
H706        H  0.78586814  0.64225882  0.92278805     0.21800
H707        H  0.76160024  0.72762731  0.04681451     0.27100
H708        H  0.86001828  0.69291360  0.97046377     0.15900
C709        C  0.81830944  0.32446886  0.95780798    -0.11400
C710        C  0.82329302  0.34066501  0.98411028     0.15200
C711        C  0.80419183  0.33631325  0.00885809     0.02100
C712        C  0.78265851  0.31357433  0.00783465    -0.15700
C713        C  0.77928398  0.29571613  0.98226907    -0.10500
C714        C  0.79624540  0.30240832  0.95648448     0.08800
C715        C  0.84914109  0.36118284  0.98510281     0.09800
S716        S  0.80707341  0.35813653  0.04265076    -0.24900
H717        H  0.76962583  0.30880229  0.02764820     0.20100
S718        S  0.79125049  0.28318333  0.92141829    -0.30600
H719        H  0.83226286  0.32851037  0.93841019     0.10400
C720        C  0.87505403  0.35437276  0.00169439     0.03600
C721        C  0.89898704  0.37462582  0.00185248    -0.12900
C722        C  0.89780675  0.40118274  0.98519987    -0.08500
C723        C  0.87239657  0.40691279  0.96717116     0.07000
C724        C  0.84828054  0.38714704  0.96771768    -0.13600
S725        S  0.87800207  0.31960147  0.02203156    -0.30600
H726        H  0.91845834  0.37002316  0.01537386     0.11300
S727        S  0.86973549  0.43812151  0.94184834    -0.27700
H728        H  0.82878259  0.39179821  0.95412737     0.08500
H729        H  0.76204784  0.27309749  0.92712009     0.27000
H730        H  0.90794892  0.32307930  0.03093098     0.21800
H731        H  0.90006868  0.43713808  0.93380947     0.27100
H732        H  0.81896676  0.38396798  0.02919667     0.15900
C733        C  0.15057514  0.61162447  0.97994187    -0.11400
C734        C  0.14898586  0.63666495  0.99857507     0.15200
C735        C  0.12282827  0.64169253  0.01568078     0.02100
C736        C  0.09925540  0.62103618  0.01411192    -0.15700
C737        C  0.10087027  0.59592873  0.99532626    -0.10500
C738        C  0.12678228  0.59160193  0.97769811     0.08800
C739        C  0.17400967  0.65816169  0.99723087     0.09800
S740        S  0.11745174  0.67394607  0.03946108    -0.24900
H741        H  0.07955489  0.62450993  0.02777270     0.20100
S742        S  0.13041251  0.56199167  0.95058901    -0.30600
H743        H  0.17026190  0.60818404  0.96624389     0.10400
C744        C  0.19644510  0.65918828  0.01930156     0.03600
C745        C  0.21860370  0.68138611  0.01767140    -0.12900
C746        C  0.21885698  0.70212279  0.99413223    -0.08500
C747        C  0.19802635  0.69907013  0.97063258     0.07000
C748        C  0.17563493  0.67742877  0.97260883    -0.13600
S749        S  0.19611119  0.63313750  0.05010247    -0.30600
H750        H  0.23447412  0.68379117  0.03572789     0.11300
S751        S  0.19854869  0.72265652  0.93790536    -0.27700
H752        H  0.15904896  0.67585517  0.95503382     0.08500
H753        H  0.10043111  0.56316813  0.94131744     0.27000
H754        H  0.22416796  0.64123348  0.06177617     0.21800
H755        H  0.22928757  0.72913171  0.93922899     0.27100
H756        H  0.14291001  0.69040705  0.03150990     0.15900
C757        C  0.17363415  0.31859598  0.02854188    -0.11400
C758        C  0.17220564  0.33803105  0.00404920     0.15200
C759        C  0.19366813  0.33567869  0.98100286     0.02100
C760        C  0.21453246  0.31236427  0.98180221    -0.15700
C761        C  0.21445397  0.29156177  0.00525609    -0.10500
C762        C  0.19466138  0.29558863  0.02950941     0.08800
C763        C  0.14702698  0.35927576  0.00266490     0.09800
S764        S  0.19439018  0.36049128  0.94921553    -0.24900
H765        H  0.22973673  0.30946544  0.96318898     0.20100
S766        S  0.19467948  0.27161814  0.06194794    -0.30600
H767        H  0.15763094  0.32080982  0.04659832     0.10400
C768        C  0.12231823  0.35421752  0.98377298     0.03600
C769        C  0.09858200  0.37467574  0.98370720    -0.12900
C770        C  0.09899519  0.39982202  0.00243628    -0.08500
C771        C  0.12314515  0.40391118  0.02242972     0.07000
C772        C  0.14701501  0.38383536  0.02203840    -0.13600
S773        S  0.12075846  0.32144126  0.96022353    -0.30600
H774        H  0.07992192  0.37142830  0.96865909     0.11300
S775        S  0.12419413  0.43343305  0.04990668    -0.27700
H776        H  0.16555533  0.38709219  0.03726948     0.08500
H777        H  0.22517162  0.26421374  0.06026315     0.27000
H778        H  0.09307334  0.32782518  0.94679136     0.21800
H779        H  0.09334875  0.43258209  0.05601860     0.27100
H780        H  0.18184036  0.38529594  0.96386070     0.15900
C781        C  0.88197144  0.47072019  0.84757083    -0.11400
C782        C  0.85554304  0.48727374  0.85019935     0.15200
C783        C  0.85188648  0.50670620  0.87473691     0.02100
C784        C  0.87477202  0.50943174  0.89593329    -0.15700
C785        C  0.90133570  0.49279193  0.89350858    -0.10500
C786        C  0.90466170  0.47291722  0.86900301     0.08800
C787        C  0.83197999  0.48319619  0.82730747     0.09800
S788        S  0.81841775  0.52840863  0.88006952    -0.24900
H789        H  0.87170978  0.52454410  0.91461240     0.20100
S790        S  0.93632137  0.44840051  0.86445316    -0.30600
H791        H  0.88466242  0.45546792  0.82893196     0.10400
C792        C  0.82753739  0.50410913  0.80418091     0.03600
C793        C  0.80540641  0.49876606  0.78260041    -0.12900
C794        C  0.78793590  0.47264917  0.78331602    -0.08500
C795        C  0.79298510  0.45146904  0.80631282     0.07000
C796        C  0.81454523  0.45719151  0.82819031    -0.13600
S797        S  0.85052916  0.53721122  0.80176628    -0.30600
H798        H  0.80153487  0.51501171  0.76510707     0.11300
S799        S  0.77410824  0.41598510  0.80823542    -0.27700
H800        H  0.81827774  0.44089322  0.84574173     0.08500
H801        H  0.93890294  0.44140118  0.89496478     0.27000
H802        H  0.83478640  0.55089503  0.77824613     0.21800
H803        H  0.77245747  0.41232769  0.77719047     0.27100
H804        H  0.79890500  0.50494338  0.87242749     0.15900
C805        C  0.18635321  0.52907155  0.82787071    -0.11400
C806        C  0.16725997  0.50419287  0.82704238     0.15200
C807        C  0.17047999  0.48328550  0.80350280     0.02100
C808        C  0.19247523  0.48802136  0.78152839    -0.15700
C809        C  0.21137907  0.51319505  0.78210396    -0.10500
C810        C  0.20795026  0.53403599  0.80568770     0.08800
C811        C  0.14374195  0.50189527  0.85053653     0.09800
S812        S  0.14730217  0.45038389  0.79951006    -0.24900
H813        H  0.19502618  0.47174704  0.76383201     0.20100
S814        S  0.22901323  0.56831799  0.80834599    -0.30600
H815        H  0.18385326  0.54529276  0.84569692     0.10400
C816        C  0.14785079  0.48460265  0.87658841     0.03600
C817        C  0.12601341  0.48498445  0.89926508    -0.12900
C818        C  0.09996367  0.50233755  0.89649256    -0.08500
C819        C  0.09628626  0.52011829  0.87048937     0.07000
C820        C  0.11785448  0.51931643  0.84776471    -0.13600
S821        S  0.18095608  0.46201039  0.88088536    -0.30600
H822        H  0.12908507  0.47144260  0.91909198     0.11300
S823        S  0.06574901  0.54598022  0.86579074    -0.27700
H824        H  0.11490307  0.53316386  0.82809684     0.08500
H825        H  0.23504643  0.57158748  0.77775845     0.27000
H826        H  0.17123268  0.44622148  0.90630392     0.21800
H827        H  0.06525876  0.55482799  0.89593184     0.27100
H828        H  0.13074438  0.45258699  0.82600354     0.15900
C829        C  0.14268635  0.51984113  0.11837258    -0.11400
C830        C  0.14028968  0.50014905  0.14267360     0.15200
C831        C  0.11478203  0.48162844  0.14495623     0.02100
C832        C  0.09315260  0.48210287  0.12224337    -0.15700
C833        C  0.09597665  0.50118446  0.09738701    -0.10500
C834        C  0.12075926  0.52084742  0.09601746     0.08800
C835        C  0.16487628  0.49937612  0.16505065     0.09800
S836        S  0.10863796  0.45697578  0.17628255    -0.24900
H837        H  0.07408400  0.46723918  0.12386835     0.20100
S838        S  0.12526363  0.54845606  0.06694030    -0.30600
H839        H  0.16182434  0.53463222  0.11685399     0.10400
C840        C  0.18543122  0.47550963  0.16626607     0.03600
C841        C  0.20821579  0.47577737  0.18787061    -0.12900
C842        C  0.21157829  0.49981103  0.20786188    -0.08500
C843        C  0.19148149  0.52419133  0.20581192     0.07000
C844        C  0.16826797  0.52350036  0.18478138    -0.13600
S845        S  0.18324127  0.44517910  0.13969603    -0.30600
H846        H  0.22351549  0.45711811  0.18936168     0.11300
S847        S  0.19469971  0.55738937  0.22832465    -0.27700
H848        H  0.15289471  0.54217853  0.18347025     0.08500
H849        H  0.09461963  0.55487371  0.06416134     0.27000
H850        H  0.20874648  0.42969394  0.14959295     0.21800
H851        H  0.22580672  0.55597254  0.23123027     0.27100
H852        H  0.12252820  0.47538220  0.19764147     0.15900
C853        C  0.87866371  0.51213570  0.14106465    -0.11400
C854        C  0.85229550  0.49615465  0.13580914     0.15200
C855        C  0.84876174  0.48044614  0.10866370     0.02100
C856        C  0.87180373  0.48103329  0.08747643    -0.15700
C857        C  0.89820481  0.49733891  0.09252287    -0.10500
C858        C  0.90141735  0.51325729  0.11971844     0.08800
C859        C  0.82898992  0.49670174  0.15916734     0.09800
S860        S  0.81578279  0.45892331  0.09979573    -0.24900
H861        H  0.86909879  0.46857673  0.06687714     0.20100
S862        S  0.93314524  0.53667202  0.12814997    -0.30600
H863        H  0.88127684  0.52433602  0.16183359     0.10400
C864        C  0.82630698  0.47348873  0.18021604     0.03600
C865        C  0.80436119  0.47540862  0.20248588    -0.12900
C866        C  0.78495805  0.50005022  0.20415124    -0.08500
C867        C  0.78803108  0.52353658  0.18309063     0.07000
C868        C  0.81005680  0.52157839  0.16096339    -0.13600
S869        S  0.85114671  0.44170361  0.17894338    -0.30600
H870        H  0.80180222  0.45741156  0.21846362     0.11300
S871        S  0.76538008  0.55688322  0.18320192    -0.27700
H872        H  0.81258625  0.53966862  0.14501233     0.08500
H873        H  0.93485784  0.54917294  0.09934544     0.27000
H874        H  0.84020511  0.42745050  0.20475998     0.21800
H875        H  0.75689405  0.55560334  0.21332646     0.27100
H876        H  0.79567735  0.47452311  0.11815618     0.15900
C877        C  0.47246937  0.29364278  0.83970996    -0.11400
C878        C  0.49380884  0.31646646  0.83633056     0.15200
C879        C  0.51208206  0.31694781  0.81064606     0.02100
C880        C  0.50726840  0.29596706  0.78816082    -0.15700
C881        C  0.48464389  0.27439506  0.79052551    -0.10500
C882        C  0.46726922  0.27288288  0.81682847     0.08800
C883        C  0.49449244  0.34119735  0.85817959     0.09800
S884        S  0.54136900  0.34408432  0.80461701    -0.24900
H885        H  0.52057885  0.29720624  0.76793938     0.20100
S886        S  0.43676741  0.24695270  0.82182995    -0.30600
H887        H  0.45854058  0.29319084  0.85952435     0.10400
C888        C  0.47189531  0.36317033  0.85828725     0.03600
C889        C  0.47449434  0.38790073  0.87732867    -0.12900
C890        C  0.49921302  0.39120313  0.89620905    -0.08500
C891        C  0.52176267  0.36897891  0.89617097     0.07000
C892        C  0.51902991  0.34414598  0.87734032    -0.13600
S893        S  0.44006018  0.36011894  0.83364316    -0.30600
H894        H  0.45694436  0.40445252  0.87796693     0.11300
S895        S  0.55500843  0.37126923  0.91874759    -0.27700
H896        H  0.53652128  0.32738509  0.87700035     0.08500
H897        H  0.42988984  0.24306854  0.79146537     0.27000
H898        H  0.42477101  0.38553189  0.84409699     0.21800
H899        H  0.55491410  0.40248767  0.92189796     0.27100
H900        H  0.52737810  0.36816185  0.81910226     0.15900
C901        C  0.54178404  0.67009480  0.81604382    -0.11400
C902        C  0.51751003  0.67031111  0.83573136     0.15200
C903        C  0.49751908  0.69473583  0.83560186     0.02100
C904        C  0.50066359  0.71697667  0.81377540    -0.15700
C905        C  0.52384294  0.71560113  0.79268279    -0.10500
C906        C  0.54538274  0.69255735  0.79478179     0.08800
C907        C  0.51388504  0.64437118  0.85571982     0.09800
S908        S  0.46702944  0.69814835  0.86177780    -0.24900
H909        H  0.48393429  0.73441048  0.81221099     0.20100
S910        S  0.57715403  0.68949545  0.77003705    -0.30600
H911        H  0.55761831  0.65175720  0.81671760     0.10400
C912        C  0.49181077  0.62236403  0.85077883     0.03600
C913        C  0.49024030  0.59751023  0.86995073    -0.12900
C914        C  0.51069617  0.59413759  0.89345174    -0.08500
C915        C  0.53362207  0.61559560  0.89722663     0.07000
C916        C  0.53464921  0.64062913  0.87870699    -0.13600
S917        S  0.46602782  0.62572670  0.81991875    -0.30600
H918        H  0.47272119  0.58104082  0.86710224     0.11300
S919        S  0.56308220  0.61164235  0.92432467    -0.27700
H920        H  0.55217604  0.65709259  0.88182023     0.08500
H921        H  0.57829802  0.71977914  0.76170760     0.27000
H922        H  0.45152384  0.59812992  0.82427198     0.21800
H923        H  0.56479990  0.58032093  0.92189433     0.27100
H924        H  0.47970210  0.68071738  0.88463462     0.15900
C925        C  0.49070379  0.62486380  0.13265574    -0.11400
C926        C  0.51181290  0.64706847  0.12567869     0.15200
C927        C  0.52969751  0.64382985  0.09994317     0.02100
C928        C  0.52572718  0.61890127  0.08157901    -0.15700
C929        C  0.50415995  0.59694188  0.08809533    -0.10500
C930        C  0.48648195  0.60001099  0.11407109     0.08800
C931        C  0.51644311  0.67172114  0.14721603     0.09800
S932        S  0.55813925  0.67044730  0.08945398    -0.24900
H933        H  0.53967577  0.61662588  0.06190227     0.20100
S934        S  0.45773749  0.57366923  0.12434072    -0.30600
H935        H  0.47736697  0.62698212  0.15276704     0.10400
C936        C  0.49436063  0.69359320  0.15259743     0.03600
C937        C  0.49816628  0.71386085  0.17624918    -0.12900
C938        C  0.52344885  0.71237296  0.19468286    -0.08500
C939        C  0.54650319  0.69192594  0.18770573     0.07000
C940        C  0.54267087  0.67175841  0.16422893    -0.13600
S941        S  0.46078723  0.69482847  0.13027879    -0.30600
H942        H  0.48044270  0.72936983  0.18177094     0.11300
S943        S  0.58077795  0.68953904  0.20876327    -0.27700
H944        H  0.55980831  0.65519352  0.15987339     0.08500
H945        H  0.44784318  0.56845406  0.09497179     0.27000
H946        H  0.44768944  0.71955323  0.14466353     0.21800
H947        H  0.58026671  0.71923203  0.21913532     0.27100
H948        H  0.54417821  0.69564818  0.10198339     0.15900
C949        C  0.50987723  0.29970602  0.15307905    -0.11400
C950        C  0.48703555  0.32120481  0.15366417     0.15200
C951        C  0.46619500  0.32094195  0.17733877     0.02100
C952        C  0.46960502  0.30023901  0.20054018    -0.15700
C953        C  0.49376856  0.28016500  0.20121046    -0.10500
C954        C  0.51389081  0.27970723  0.17689199     0.08800
C955        C  0.48776356  0.34586987  0.13161328     0.09800
S956        S  0.43538488  0.34695965  0.18006616    -0.24900
H957        H  0.45413765  0.30091086  0.21918167     0.20100
S958        S  0.54707810  0.25703719  0.17655298    -0.30600
H959        H  0.52603931  0.30004986  0.13504136     0.10400
C960        C  0.50513208  0.37163781  0.13698503     0.03600
C961        C  0.50413725  0.39558964  0.11677888    -0.12900
C962        C  0.48617861  0.39440612  0.09116586    -0.08500
C963        C  0.46794632  0.36885039  0.08640608     0.07000
C964        C  0.46924537  0.34475967  0.10643528    -0.13600
S965        S  0.52844591  0.37415666  0.16980437    -0.30600
H966        H  0.51802488  0.41499639  0.12052865     0.11300
S967        S  0.44155575  0.36613150  0.05609012    -0.27700
H968        H  0.45518823  0.32534566  0.10281087     0.08500
H969        H  0.55414169  0.26254938  0.20664600     0.27000
H970        H  0.53410819  0.40505066  0.16772659     0.21800
H971        H  0.43436545  0.39677751  0.05587600     0.27100
H972        H  0.44711821  0.37020086  0.16253970     0.15900
C973        C  0.61478980  0.14523268  0.02691474    -0.11400
C974        C  0.63451445  0.15044825  0.00318563     0.15200
C975        C  0.63564859  0.12993250  0.97911082     0.02100
C976        C  0.61679334  0.10497752  0.97915913    -0.15700
C977        C  0.59722803  0.09973788  0.00297379    -0.10500
C978        C  0.59630317  0.12006368  0.02712715     0.08800
C979        C  0.65555936  0.17579304  0.00541937     0.09800
S980        S  0.66063477  0.13413348  0.94774122    -0.24900
H981        H  0.61714464  0.08971392  0.96034355     0.20100
S982        S  0.57253047  0.11469448  0.05917185    -0.30600
H983        H  0.61420069  0.16061173  0.04563164     0.10400
C984        C  0.65467673  0.20018833  0.98549299     0.03600
C985        C  0.67885891  0.22017395  0.98458980    -0.12900
C986        C  0.70341130  0.21647837  0.00375756    -0.08500
C987        C  0.70254196  0.19381853  0.02582755     0.07000
C988        C  0.67867934  0.17374701  0.02635053    -0.13600
S989        S  0.62336987  0.20509742  0.96055028    -0.30600
H990        H  0.67950740  0.23744287  0.96765424     0.11300
S991        S  0.73189399  0.18804620  0.05287519    -0.27700
H992        H  0.67891386  0.15540529  0.04221483     0.08500
H993        H  0.57405887  0.08325951  0.05901082     0.27000
H994        H  0.63328702  0.23199668  0.94755204     0.21800
H995        H  0.74299202  0.21738569  0.05248744     0.27100
H996        H  0.68429939  0.14703168  0.96384295     0.15900
C997        C  0.38614722  0.85127666  0.03101249    -0.11400
C998        C  0.36368305  0.84758411  0.00959212     0.15200
C999        C  0.35965895  0.86977023  0.98735624     0.02100
C1000       C  0.37933497  0.89416518  0.98606924    -0.15700
C1001       C  0.40242812  0.89730061  0.00701440    -0.10500
C1002       C  0.40523764  0.87597977  0.03018347     0.08800
C1003       C  0.34347746  0.82156468  0.01243849     0.09800
S1004       S  0.32989511  0.86841955  0.96015808    -0.24900
H1005       H  0.37683300  0.91060323  0.96843213     0.20100
S1006       S  0.43218511  0.87948511  0.05988696    -0.30600
H1007       H  0.38859028  0.83491955  0.04873811     0.10400
C1008       C  0.34287437  0.79826256  0.99119552     0.03600
C1009       C  0.31996352  0.77683283  0.99252648    -0.12900
C1010       C  0.29766085  0.77863107  0.01449799    -0.08500
C1011       C  0.30004217  0.80042437  0.03728354     0.07000
C1012       C  0.32301665  0.82145786  0.03607855    -0.13600
S1013       S  0.37015574  0.79685942  0.96149624    -0.30600
H1014       H  0.31799045  0.76028874  0.97499129     0.11300
S1015       S  0.27317380  0.80433396  0.06718465    -0.27700
H1016       H  0.32389499  0.83901758  0.05275749     0.08500
H1017       H  0.43148595  0.91093701  0.06105857     0.27000
H1018       H  0.35910809  0.77089030  0.94757957     0.21800
H1019       H  0.26135731  0.77529075  0.06564478     0.27100
H1020       H  0.30928198  0.85263205  0.97786156     0.15900
C1021       C  0.64437810  0.87201410  0.99954612    -0.11400
C1022       C  0.63586604  0.84780287  0.98147331     0.15200
C1023       C  0.60822746  0.84849393  0.96645128     0.02100
C1024       C  0.58958111  0.87323230  0.97012542    -0.15700
C1025       C  0.59773172  0.89736214  0.98859868    -0.10500
C1026       C  0.62552585  0.89665469  0.00349752     0.08800
C1027       C  0.65635392  0.82218571  0.97900903     0.09800
S1028       S  0.59549668  0.81899414  0.94194618    -0.24900
H1029       H  0.56836465  0.87359459  0.95844844     0.20100
S1030       S  0.63742182  0.92546772  0.02905598    -0.30600
H1031       H  0.66563984  0.87139373  0.01111917     0.10400
C1032       C  0.67546747  0.81898615  0.95429063     0.03600
C1033       C  0.69640502  0.79582883  0.95418157    -0.12900
C1034       C  0.69937169  0.77647022  0.97870948    -0.08500
C1035       C  0.67952640  0.77921918  0.00314694     0.07000
C1036       C  0.65778330  0.80167246  0.00266696    -0.13600
S1037       S  0.67483070  0.84569726  0.92399709    -0.30600
H1038       H  0.71210738  0.79405075  0.93584164     0.11300
S1039       S  0.68245721  0.75725230  0.03681423    -0.27700
H1040       H  0.64298996  0.80432158  0.02166981     0.08500
H1041       H  0.60927006  0.92875347  0.04269972     0.27000
H1042       H  0.69643987  0.83152245  0.90607758     0.21800
H1043       H  0.71378088  0.75575873  0.03716467     0.27100
H1044       H  0.61311740  0.79571153  0.95344261     0.15900
C1045       C  0.35297510  0.12143317  0.00152058    -0.11400
C1046       C  0.36428924  0.15021547  0.99621299     0.15200
C1047       C  0.39530681  0.15451902  0.99417666     0.02100
C1048       C  0.41426946  0.12986546  0.99676886    -0.15700
C1049       C  0.40318837  0.10049189  0.00087645    -0.10500
C1050       C  0.37194057  0.09670857  0.00445766     0.08800
C1051       C  0.34288706  0.17517123  0.99382393     0.09800
S1052       S  0.41214829  0.19073347  0.98808249    -0.24900
H1053       H  0.43804786  0.13390420  0.99489403     0.20100
S1054       S  0.35470754  0.06172716  0.01459708    -0.30600
H1055       H  0.32907679  0.11834185  0.00399578     0.10400
C1056       C  0.32573505  0.17912617  0.96778907     0.03600
C1057       C  0.30201155  0.19948673  0.96802461    -0.12900
C1058       C  0.29507278  0.21579229  0.99384078    -0.08500
C1059       C  0.31326047  0.21289667  0.01950814     0.07000
C1060       C  0.33740363  0.19302885  0.01896190    -0.13600
S1061       S  0.33325760  0.15720255  0.93475222    -0.30600
H1062       H  0.28772515  0.20152911  0.94860481     0.11300
S1063       S  0.30547122  0.23145157  0.05448528    -0.27700
H1064       H  0.35070843  0.18990546  0.03895196     0.08500
H1065       H  0.37505150  0.05608881  0.03791858     0.27000
H1066       H  0.31236160  0.17148116  0.91610940     0.21800
H1067       H  0.27430856  0.23310595  0.05142048     0.27100
H1068       H  0.38820818  0.20347785  0.97228310     0.15900
C1069       C  0.47640043  0.14343832  0.87641729    -0.11400
C1070       C  0.49467245  0.13961201  0.85120686     0.15200
C1071       C  0.51388036  0.11459432  0.84995275     0.02100
C1072       C  0.51442714  0.09414251  0.87373826    -0.15700
C1073       C  0.49596524  0.09772208  0.89893329    -0.10500
C1074       C  0.47648978  0.12266964  0.89994901     0.08800
C1075       C  0.49242610  0.16156004  0.82628216     0.09800
S1076       S  0.53806719  0.10739646  0.81855134    -0.24900
H1077       H  0.52937304  0.07510931  0.87248115     0.20100
S1078       S  0.44989138  0.12844538  0.92954331    -0.30600
H1079       H  0.46132055  0.16238763  0.87736544     0.10400
C1080       C  0.46722017  0.16206240  0.80742269     0.03600
C1081       C  0.46537568  0.18350729  0.78464502    -0.12900
C1082       C  0.48793721  0.20488297  0.78034286    -0.08500
C1083       C  0.51364426  0.20383315  0.79864912     0.07000
C1084       C  0.51556016  0.18228342  0.82146085    -0.13600
S1085       S  0.43725176  0.13542431  0.81236529    -0.30600
H1086       H  0.44576020  0.18434155  0.77063803     0.11300
S1087       S  0.54482237  0.22887012  0.79381075    -0.27700
H1088       H  0.53516725  0.18169959  0.83563919     0.08500
H1089       H  0.44323986  0.09795797  0.93365592     0.27000
H1090       H  0.42014854  0.14440124  0.78756237     0.21800
H1091       H  0.53917303  0.23566564  0.76367480     0.27100
H1092       H  0.51841443  0.11843990  0.79667808     0.15900
C1093       C  0.53517594  0.81332965  0.82818738    -0.11400
C1094       C  0.50785835  0.82794325  0.83303704     0.15200
C1095       C  0.48317376  0.82072656  0.81470690     0.02100
C1096       C  0.48656279  0.79987620  0.79157895    -0.15700
C1097       C  0.51374130  0.78491925  0.78704983    -0.10500
C1098       C  0.53823489  0.79159668  0.80574264     0.08800
C1099       C  0.50619237  0.85170073  0.85625453     0.09800
S1100       S  0.44664186  0.83673447  0.82036199    -0.24900
H1101       H  0.46766093  0.79461786  0.77741412     0.20100
S1102       S  0.57386445  0.77365907  0.80015717    -0.30600
H1103       H  0.55420480  0.81927617  0.84188672     0.10400
C1104       C  0.51073679  0.84545454  0.88678714     0.03600
C1105       C  0.50883379  0.86871020  0.90778927    -0.12900
C1106       C  0.50192916  0.89830381  0.89922448    -0.08500
C1107       C  0.49728571  0.90424038  0.86833830     0.07000
C1108       C  0.49994299  0.88111085  0.84743598    -0.13600
S1109       S  0.51798200  0.80767290  0.89924588    -0.30600
H1110       H  0.51279541  0.86364364  0.93109502     0.11300
S1111       S  0.48686713  0.94029004  0.85369891    -0.27700
H1112       H  0.49653130  0.88598267  0.82395125     0.08500
H1113       H  0.58840942  0.78638018  0.82494682     0.27000
H1114       H  0.51918338  0.81391007  0.93002723     0.21800
H1115       H  0.46291676  0.94328427  0.87383532     0.27100
H1116       H  0.44879405  0.83784734  0.85171612     0.15900
C1117       C  0.51259669  0.87929616  0.14996095    -0.11400
C1118       C  0.50842924  0.84949984  0.14132918     0.15200
C1119       C  0.50390488  0.84303611  0.11078099     0.02100
C1120       C  0.50329023  0.86640831  0.08976811    -0.15700
C1121       C  0.50713725  0.89660274  0.09822186    -0.10500
C1122       C  0.51278022  0.90260295  0.12893728     0.08800
C1123       C  0.51072825  0.82562769  0.16448158     0.09800
S1124       S  0.49943404  0.80534250  0.09709681    -0.24900
H1125       H  0.49951805  0.86076035  0.06654221     0.20100
S1126       S  0.52338632  0.93878857  0.14271765    -0.30600
H1127       H  0.51702569  0.88431067  0.17324066     0.10400
C1128       C  0.53736206  0.80934582  0.16875373     0.03600
C1129       C  0.53840321  0.78655624  0.19042697    -0.12900
C1130       C  0.51347528  0.77984721  0.20829144    -0.08500
C1131       C  0.48683233  0.79633798  0.20404809     0.07000
C1132       C  0.48587673  0.81919289  0.18251150    -0.13600
S1133       S  0.57018316  0.81803381  0.14694295    -0.30600
H1134       H  0.55878040  0.77398630  0.19382243     0.11300
S1135       S  0.45292436  0.78854743  0.22430061    -0.27700
H1136       H  0.46535007  0.83161779  0.17925880     0.08500
H1137       H  0.54529915  0.94193073  0.12039175     0.27000
H1138       H  0.58844918  0.79529581  0.15868759     0.21800
H1139       H  0.45884766  0.75810503  0.22939113     0.27100
H1140       H  0.48533208  0.79390330  0.12273426     0.15900
C1141       C  0.48942053  0.11390839  0.15092150    -0.11400
C1142       C  0.49682957  0.14333962  0.14320838     0.15200
C1143       C  0.50420388  0.14995618  0.11326803     0.02100
C1144       C  0.50416725  0.12704021  0.09187291    -0.15700
C1145       C  0.49767574  0.09711759  0.09953871    -0.10500
C1146       C  0.48921114  0.09097854  0.12956156     0.08800
C1147       C  0.49710259  0.16644602  0.16702780     0.09800
S1148       S  0.51393828  0.18714673  0.10090266    -0.24900
H1149       H  0.50986879  0.13273148  0.06905111     0.20100
S1150       S  0.47591599  0.05510448  0.14207544    -0.30600
H1151       H  0.48314597  0.10887408  0.17378079     0.10400
C1152       C  0.47376103  0.18731482  0.17044086     0.03600
C1153       C  0.47586772  0.20945763  0.19265108    -0.12900
C1154       C  0.50061430  0.21090839  0.21191114    -0.08500
C1155       C  0.52378057  0.18949785  0.20861879     0.07000
C1156       C  0.52157755  0.16752513  0.18645123    -0.13600
S1157       S  0.44107504  0.18531677  0.14692893    -0.30600
H1158       H  0.45802870  0.22554550  0.19542921     0.11300
S1159       S  0.55761315  0.18949278  0.23049013    -0.27700
H1160       H  0.53954401  0.15149383  0.18376986     0.08500
H1161       H  0.45643874  0.05147775  0.11765790     0.27000
H1162       H  0.42591765  0.20974837  0.15967535     0.21800
H1163       H  0.55741712  0.21994795  0.23792290     0.27100
H1164       H  0.52719737  0.19658530  0.12774875     0.15900
C1165       C  0.39264548  0.00125309  0.15582546    -0.11400
C1166       C  0.36296068  0.00877824  0.14945350     0.15200
C1167       C  0.35392974  0.01070568  0.11921966     0.02100
C1168       C  0.37500853  0.00714340  0.09637778    -0.15700
C1169       C  0.40487687  0.99962834  0.10260521    -0.10500
C1170       C  0.41325310  0.99513015  0.13299565     0.08800
C1171       C  0.34195920  0.01475935  0.17463086     0.09800
S1172       S  0.31564835  0.01663960  0.10814487    -0.24900
H1173       H  0.36773656  0.00992341  0.07346244     0.20100
S1174       S  0.44920552  0.97986150  0.14362657    -0.30600
H1175       H  0.39952382  0.99966180  0.17895566     0.10400
C1176       C  0.33564009  0.99305156  0.19677786     0.03600
C1177       C  0.31322625  0.99866263  0.21802278    -0.12900
C1178       C  0.29648355  0.02515885  0.21727901    -0.08500
C1179       C  0.30412066  0.04758990  0.19629172     0.07000
C1180       C  0.32700947  0.04233349  0.17564310    -0.13600
S1181       S  0.35342063  0.95677805  0.19623162    -0.30600
H1182       H  0.30684187  0.98115498  0.23347815     0.11300
S1183       S  0.28433476  0.08264675  0.19326004    -0.27700
H1184       H  0.33226056  0.05939718  0.15923714     0.08500
H1185       H  0.44366545  0.97706529  0.17443698     0.27000
H1186       H  0.34331024  0.94732025  0.22448028     0.21800
H1187       H  0.27250676  0.08275432  0.22228999     0.27100
H1188       H  0.30297612  0.00123721  0.13246988     0.15900
C1189       C  0.65255540  0.98117505  0.79514798    -0.11400
C1190       C  0.65447600  0.00196857  0.81852377     0.15200
C1191       C  0.67848231  0.02229255  0.81937293     0.02100
C1192       C  0.70098776  0.02022079  0.79793611    -0.15700
C1193       C  0.70042233  0.99799601  0.77574395    -0.10500
C1194       C  0.67553593  0.97854813  0.77405701     0.08800
C1195       C  0.63311365  0.99993825  0.84352022     0.09800
S1196       S  0.68274695  0.04986887  0.84851683    -0.24900
H1197       H  0.72011146  0.03502708  0.79962872     0.20100
S1198       S  0.67307439  0.94784965  0.74813778    -0.30600
H1199       H  0.63409687  0.96547454  0.79464279     0.10400
C1200       C  0.60415966  0.01171085  0.84123050     0.03600
C1201       C  0.58533883  0.01091954  0.86625685    -0.12900
C1202       C  0.59461739  0.99778825  0.89344298    -0.08500
C1203       C  0.62334844  0.98467183  0.89494340     0.07000
C1204       C  0.64243334  0.98650798  0.87024794    -0.13600
S1205       S  0.59167209  0.02857896  0.80672227    -0.30600
H1206       H  0.56339371  0.02097199  0.86467799     0.11300
S1207       S  0.63648568  0.96388084  0.92684825    -0.27700
H1208       H  0.66463158  0.97692745  0.87165324     0.08500
H1209       H  0.70337074  0.93981033  0.75003942     0.27000
H1210       H  0.56154196  0.03179779  0.81504093     0.21800
H1211       H  0.60921970  0.94885925  0.93146427     0.27100
H1212       H  0.65209711  0.05398012  0.85398457     0.15900
C1213       C  0.34194230  0.02436644  0.80349892    -0.11400
C1214       C  0.34313385  0.99903015  0.82194627     0.15200
C1215       C  0.32298792  0.97526254  0.81716478     0.02100
C1216       C  0.30084688  0.97819598  0.79538867    -0.15700
C1217       C  0.29814244  0.00446984  0.77842859    -0.10500
C1218       C  0.31925783  0.02760923  0.78225657     0.08800
C1219       C  0.36359468  0.99929757  0.84776125     0.09800
S1220       S  0.32303508  0.94158390  0.83942848    -0.24900
H1221       H  0.28447127  0.96050446  0.79281119     0.20100
S1222       S  0.31613837  0.06315072  0.76371712    -0.30600
H1223       H  0.35740416  0.04265992  0.80724119     0.10400
C1224       C  0.39413378  0.99353109  0.84417709     0.03600
C1225       C  0.41265024  0.99349641  0.86929736    -0.12900
C1226       C  0.40158732  0.99973369  0.89826289    -0.08500
C1227       C  0.37079829  0.00649905  0.90141221     0.07000
C1228       C  0.35217802  0.00573276  0.87624018    -0.13600
S1229       S  0.40945975  0.98598573  0.80756119    -0.30600
H1230       H  0.43607238  0.98871696  0.86604789     0.11300
S1231       S  0.35393611  0.01760545  0.93622018    -0.27700
H1232       H  0.32862760  0.01079477  0.87872348     0.08500
H1233       H  0.28565026  0.06652740  0.77059609     0.27000
H1234       H  0.43917546  0.98140156  0.81666035     0.21800
H1235       H  0.37591820  0.03926542  0.94244361     0.27100
H1236       H  0.35344936  0.94228099  0.84714862     0.15900
C1237       C  0.52125595  0.10676188  0.34421901    -0.11400
C1238       C  0.50149493  0.13100206  0.34517554     0.15200
C1239       C  0.48106148  0.13341586  0.36911910     0.02100
C1240       C  0.48118260  0.11182078  0.39177310    -0.15700
C1241       C  0.50159840  0.08799567  0.39132286    -0.10500
C1242       C  0.52193574  0.08562055  0.36719958     0.08800
C1243       C  0.50385850  0.15432902  0.32188454     0.09800
S1244       S  0.45472357  0.16377200  0.37223056    -0.24900
H1245       H  0.46531774  0.11371139  0.40998747     0.20100
S1246       S  0.55045857  0.05730869  0.36506475    -0.30600
H1247       H  0.53705475  0.10496232  0.32593438     0.10400
C1248       C  0.52890192  0.17340335  0.32066193     0.03600
C1249       C  0.52901341  0.19727882  0.30045732    -0.12900
C1250       C  0.50475686  0.20244251  0.28126817    -0.08500
C1251       C  0.47993302  0.18286406  0.28209063     0.07000
C1252       C  0.48003677  0.15873225  0.30203423    -0.13600
S1253       S  0.55986782  0.16864403  0.34617624    -0.30600
H1254       H  0.54772315  0.21265450  0.30014313     0.11300
S1255       S  0.44647690  0.18840013  0.26032971    -0.27700
H1256       H  0.46076113  0.14408447  0.30314215     0.08500
H1257       H  0.55607268  0.05626520  0.39595972     0.27000
H1258       H  0.57797569  0.19155639  0.33447457     0.21800
H1259       H  0.44817936  0.21972310  0.25857461     0.27100
H1260       H  0.47448780  0.18598990  0.36195097     0.15900
C1261       C  0.47745191  0.87189580  0.34883597    -0.11400
C1262       C  0.49861216  0.84882234  0.34939850     0.15200
C1263       C  0.51757080  0.84593089  0.37453751     0.02100
C1264       C  0.51572540  0.86684754  0.39784860    -0.15700
C1265       C  0.49497085  0.89038326  0.39694845    -0.10500
C1266       C  0.47508409  0.89225683  0.37245695     0.08800
C1267       C  0.50040754  0.82813016  0.32354054     0.09800
S1268       S  0.54475739  0.81631381  0.37816198    -0.24900
H1269       H  0.53099095  0.86505964  0.41655997     0.20100
S1270       S  0.44555996  0.91952620  0.37037935    -0.30600
H1271       H  0.46247114  0.87388623  0.32991455     0.10400
C1272       C  0.47796893  0.80662776  0.31826350     0.03600
C1273       C  0.48214260  0.78527119  0.29577486    -0.12900
C1274       C  0.50813445  0.78498398  0.27826080    -0.08500
C1275       C  0.53012295  0.80714884  0.28280168     0.07000
C1276       C  0.52581042  0.82876498  0.30508391    -0.13600
S1277       S  0.44511258  0.80473711  0.34164645    -0.30600
H1278       H  0.46571969  0.76773965  0.29266223     0.11300
S1279       S  0.56493169  0.80783164  0.26249948    -0.27700
H1280       H  0.54306250  0.84529776  0.30910345     0.08500
H1281       H  0.44034044  0.92105680  0.40134834     0.27000
H1282       H  0.43050659  0.78183242  0.32577320     0.21800
H1283       H  0.56854760  0.77664522  0.26069820     0.27100
H1284       H  0.52986151  0.79509996  0.36041140     0.15900
C1285       C  0.48832128  0.14019841  0.61550284    -0.11400
C1286       C  0.49710546  0.13051082  0.64398440     0.15200
C1287       C  0.50882510  0.10150212  0.64751831     0.02100
C1288       C  0.51241721  0.08328407  0.62241622    -0.15700
C1289       C  0.50274251  0.09246815  0.59381516    -0.10500
C1290       C  0.49061366  0.12151859  0.59056175     0.08800
C1291       C  0.49242542  0.15101627  0.66945696     0.09800
S1292       S  0.51768971  0.08573085  0.68356234    -0.24900
H1293       H  0.52152438  0.06105391  0.62564044     0.20100
S1294       S  0.47500312  0.13516246  0.55611476    -0.30600
H1295       H  0.47883736  0.16235150  0.61283693     0.10400
C1296       C  0.51647092  0.16471493  0.68453719     0.03600
C1297       C  0.51050751  0.18651715  0.70629819    -0.12900
C1298       C  0.48109561  0.19554348  0.71232368    -0.08500
C1299       C  0.45708413  0.18128401  0.69768332     0.07000
C1300       C  0.46303272  0.15898877  0.67670293    -0.13600
S1301       S  0.55462162  0.15642290  0.67427843    -0.30600
H1302       H  0.52880783  0.19802809  0.71718330     0.11300
S1303       S  0.41842002  0.19143542  0.70334766    -0.27700
H1304       H  0.44458546  0.14851530  0.66500460     0.08500
H1305       H  0.50285795  0.13519752  0.54152561     0.27000
H1306       H  0.56795096  0.17971553  0.69067647     0.21800
H1307       H  0.42179879  0.20739728  0.73012023     0.27100
H1308       H  0.49486567  0.10060470  0.69923342     0.15900
C1309       C  0.51250259  0.85363781  0.62469380    -0.11400
C1310       C  0.49512931  0.86138780  0.64963189     0.15200
C1311       C  0.47714144  0.88716919  0.64870684     0.02100
C1312       C  0.47697331  0.90474379  0.62292541    -0.15700
C1313       C  0.49482407  0.89746152  0.59809145    -0.10500
C1314       C  0.51281450  0.87150564  0.59904959     0.08800
C1315       C  0.49629642  0.84177455  0.67604488     0.09800
S1316       S  0.45412178  0.89877540  0.67968707    -0.24900
H1317       H  0.46312934  0.92463401  0.62243336     0.20100
S1318       S  0.53770113  0.86069880  0.56920849    -0.30600
H1319       H  0.52635348  0.83376120  0.62547476     0.10400
C1320       C  0.47313578  0.82140910  0.68230970     0.03600
C1321       C  0.47761195  0.79952564  0.70417777    -0.12900
C1322       C  0.50489865  0.79737565  0.71941370    -0.08500
C1323       C  0.52727298  0.81908148  0.71453190     0.07000
C1324       C  0.52251777  0.84134559  0.69315146    -0.13600
S1325       S  0.43908582  0.82144717  0.66064353    -0.30600
H1326       H  0.46073819  0.78252677  0.70782726     0.11300
S1327       S  0.56329871  0.81811330  0.73250414    -0.27700
H1328       H  0.54018783  0.85723681  0.68835541     0.08500
H1329       H  0.54690662  0.88993371  0.56217194     0.27000
H1330       H  0.42460830  0.79836779  0.67640118     0.21800
H1331       H  0.56621242  0.78683299  0.73306964     0.27100
H1332       H  0.47381806  0.88900831  0.70212702     0.15900
C1333       C  0.34847869  0.01673252  0.38076451    -0.11400
C1334       C  0.35273131  0.00399569  0.35245582     0.15200
C1335       C  0.38049760  0.99068119  0.34566294     0.02100
C1336       C  0.40246828  0.98849434  0.36784225    -0.15700
C1337       C  0.39799083  0.00038023  0.39660338    -0.10500
C1338       C  0.37104701  0.01601052  0.40241779     0.08800
C1339       C  0.32871321  0.00709249  0.32979778     0.09800
S1340       S  0.38961573  0.97723031  0.30878369    -0.24900
H1341       H  0.42352754  0.97807958  0.36226632     0.20100
S1342       S  0.36531066  0.03834330  0.43546963    -0.30600
H1343       H  0.32780427  0.02838544  0.38560298     0.10400
C1344       C  0.31225709  0.98230846  0.31921625     0.03600
C1345       C  0.29037969  0.98663983  0.29708642    -0.12900
C1346       C  0.28461832  0.01521175  0.28544718    -0.08500
C1347       C  0.30043068  0.04002042  0.29682554     0.07000
C1348       C  0.32238103  0.03570030  0.31862909    -0.13600
S1349       S  0.31868246  0.94536914  0.33425623    -0.30600
H1350       H  0.27782057  0.96781149  0.28855125     0.11300
S1351       S  0.29318132  0.07780212  0.28492583    -0.27700
H1352       H  0.33467305  0.05483458  0.32701611     0.08500
H1353       H  0.39453906  0.05003843  0.43541403     0.27000
H1354       H  0.29738096  0.93042374  0.31661061     0.21800
H1355       H  0.26303825  0.07330815  0.27743946     0.27100
H1356       H  0.37421001  0.99990641  0.29336904     0.15900
C1357       C  0.64779666  0.01390056  0.61236367    -0.11400
C1358       C  0.64381474  0.99781879  0.63896729     0.15200
C1359       C  0.61687026  0.98194158  0.64338756     0.02100
C1360       C  0.59522243  0.98135719  0.62070140    -0.15700
C1361       C  0.59927604  0.99706287  0.59371820    -0.10500
C1362       C  0.62576360  0.01415532  0.59003557     0.08800
C1363       C  0.66866799  0.99660483  0.66103581     0.09800
S1364       S  0.60905079  0.96177247  0.67744474    -0.24900
H1365       H  0.57504515  0.96839059  0.62415105     0.20100
S1366       S  0.63236255  0.03794126  0.55816314    -0.30600
H1367       H  0.66823883  0.02647410  0.60901886     0.10400
C1368       C  0.68646273  0.97075847  0.66399198     0.03600
C1369       C  0.70843496  0.96952973  0.68635947    -0.12900
C1370       C  0.71297545  0.99358141  0.70603262    -0.08500
C1371       C  0.69661670  0.02023968  0.70162107     0.07000
C1372       C  0.67443309  0.02139059  0.67944923    -0.13600
S1373       S  0.68108919  0.93932104  0.63921600    -0.30600
H1374       H  0.72155897  0.94942009  0.68929520     0.11300
S1375       S  0.70392774  0.05371967  0.72276025    -0.27700
H1376       H  0.66148654  0.04166874  0.67660044     0.08500
H1377       H  0.60250662  0.04733541  0.55558724     0.27000
H1378       H  0.70357164  0.92107633  0.65142993     0.21800
H1379       H  0.73442738  0.04777213  0.72744255     0.27100
H1380       H  0.62448130  0.98148026  0.69647099     0.15900
C1381       C  0.38232071  0.02082025  0.64428421    -0.11400
C1382       C  0.35561190  0.00475823  0.64064166     0.15200
C1383       C  0.35104302  0.98846069  0.61401624     0.02100
C1384       C  0.37358161  0.98758330  0.59231070    -0.15700
C1385       C  0.40058294  0.00321940  0.59597858    -0.10500
C1386       C  0.40452193  0.02075766  0.62210548     0.08800
C1387       C  0.33258852  0.00633539  0.66451790     0.09800
S1388       S  0.31714656  0.96799079  0.60640751    -0.24900
H1389       H  0.37001256  0.97433076  0.57235533     0.20100
S1390       S  0.43629864  0.04493156  0.62779804    -0.30600
H1391       H  0.38560900  0.03401739  0.66433455     0.10400
C1392       C  0.32865423  0.98316449  0.68554510     0.03600
C1393       C  0.30667989  0.98604567  0.70787472    -0.12900
C1394       C  0.28843531  0.01160854  0.70959667    -0.08500
C1395       C  0.29265261  0.03478160  0.68841112     0.07000
C1396       C  0.31445737  0.03179949  0.66616833    -0.13600
S1397       S  0.35164874  0.95002266  0.68389379    -0.30600
H1398       H  0.30334588  0.96821523  0.72389949     0.11300
S1399       S  0.27195433  0.06927404  0.68898156    -0.27700
H1400       H  0.31754089  0.04966463  0.65006974     0.08500
H1401       H  0.43860537  0.05365168  0.59767248     0.27000
H1402       H  0.33926470  0.93568483  0.70900376     0.21800
H1403       H  0.26825278  0.06992885  0.72003016     0.27100
H1404       H  0.29783150  0.98647810  0.62285835     0.15900
C1405       C  0.66691761  0.99828969  0.19144716    -0.11400
C1406       C  0.66246215  0.97598004  0.16988450     0.15200
C1407       C  0.67939114  0.94940946  0.17131795     0.02100
C1408       C  0.70127697  0.94638424  0.19339077    -0.15700
C1409       C  0.70663640  0.96915945  0.21432702    -0.10500
C1410       C  0.68906612  0.99541175  0.21329796     0.08800
C1411       C  0.64113388  0.98192597  0.14537695     0.09800
S1412       S  0.67493240  0.91895139  0.14522790    -0.24900
H1413       H  0.71493551  0.92636285  0.19372617     0.20100
S1414       S  0.69587304  0.02737660  0.23670949    -0.30600
H1415       H  0.65407393  0.01880953  0.19022586     0.10400
C1416       C  0.61022574  0.98137169  0.15049702     0.03600
C1417       C  0.59070992  0.98780833  0.12697045    -0.12900
C1418       C  0.60114960  0.99413762  0.09783947    -0.08500
C1419       C  0.63247526  0.99619643  0.09334398     0.07000
C1420       C  0.65199564  0.98959620  0.11697488    -0.13600
S1421       S  0.59556387  0.97121063  0.18676512    -0.30600
H1422       H  0.56703158  0.98744299  0.13147488     0.11300
S1423       S  0.64915751  0.00883164  0.05893996    -0.27700
H1424       H  0.67590375  0.99102709  0.11339268     0.08500
H1425       H  0.72691347  0.02663037  0.23232233     0.27000
H1426       H  0.56551721  0.97814433  0.18079309     0.21800
H1427       H  0.62900154  0.03274260  0.05528721     0.27100
H1428       H  0.64539328  0.92527898  0.13675671     0.15900
C1429       C  0.64850961  0.97066694  0.37874083    -0.11400
C1430       C  0.64167504  0.97916667  0.34939594     0.15200
C1431       C  0.61210557  0.98750345  0.34228966     0.02100
C1432       C  0.59039770  0.98805452  0.36488763    -0.15700
C1433       C  0.59725478  0.98040349  0.39465695    -0.10500
C1434       C  0.62664725  0.97033361  0.40112726     0.08800
C1435       C  0.66569640  0.97753286  0.32665632     0.09800
S1436       S  0.60030205  0.99749902  0.30498118    -0.24900
H1437       H  0.56793137  0.99480504  0.35905365     0.20100
S1438       S  0.63736571  0.95432669  0.43653993    -0.30600
H1439       H  0.67095070  0.96323263  0.38400608     0.10400
C1440       C  0.68766979  0.99999712  0.32440124     0.03600
C1441       C  0.71081828  0.99695273  0.30341541    -0.12900
C1442       C  0.71246221  0.97187370  0.28456899    -0.08500
C1443       C  0.69070602  0.94908697  0.28746051     0.07000
C1444       C  0.66735116  0.95238623  0.30804556    -0.13600
S1445       S  0.68581552  0.03277603  0.34790469    -0.30600
H1446       H  0.72745011  0.01436193  0.30125047     0.11300
S1447       S  0.69252919  0.91448886  0.26694140    -0.27700
H1448       H  0.65078532  0.93482037  0.31020804     0.08500
H1449       H  0.61121831  0.93698028  0.43919902     0.27000
H1450       H  0.71310894  0.04539778  0.33870931     0.21800
H1451       H  0.72389188  0.91350387  0.26544918     0.27100
H1452       H  0.62851451  0.00343669  0.29262447     0.15900
C1453       C  0.30360062  0.83620185  0.53108252    -0.11400
C1454       C  0.32040738  0.83672978  0.50460138     0.15200
C1455       C  0.31468737  0.81527235  0.48221220     0.02100
C1456       C  0.29355385  0.79280694  0.48755268    -0.15700
C1457       C  0.27827856  0.79093178  0.51492482    -0.10500
C1458       C  0.28283239  0.81339860  0.53660172     0.08800
C1459       C  0.34568369  0.85789225  0.50243885     0.09800
S1460       S  0.33439491  0.81443370  0.44697862    -0.24900
H1461       H  0.29027305  0.77552629  0.47088620     0.20100
S1462       S  0.26457557  0.81305601  0.57246848    -0.30600
H1463       H  0.30791105  0.85274188  0.54825954     0.10400
C1464       C  0.34409713  0.88415861  0.48519669     0.03600
C1465       C  0.36865646  0.90363239  0.48457858    -0.12900
C1466       C  0.39492903  0.89724803  0.50064344    -0.08500
C1467       C  0.39652228  0.87050511  0.51748669     0.07000
C1468       C  0.37197957  0.85114730  0.51806631    -0.13600
S1469       S  0.31090421  0.89279801  0.46396610    -0.30600
H1470       H  0.36749577  0.92386591  0.47131299     0.11300
S1471       S  0.42844182  0.86049264  0.53990488    -0.27700
H1472       H  0.37319196  0.83077798  0.53117031     0.08500
H1473       H  0.26664376  0.78198760  0.57669709     0.27000
H1474       H  0.32111337  0.92006235  0.45198499     0.21800
H1475       H  0.43194949  0.88933615  0.55200609     0.27100
H1476       H  0.36128625  0.82720443  0.45691313     0.15900
C1477       C  0.64520554  0.87680370  0.52162403    -0.11400
C1478       C  0.64649917  0.85328224  0.50100387     0.15200
C1479       C  0.62197796  0.84830375  0.48162486     0.02100
C1480       C  0.59765461  0.86801773  0.48217359    -0.15700
C1481       C  0.59691460  0.89221430  0.50206627    -0.10500
C1482       C  0.62065195  0.89605433  0.52262345     0.08800
C1483       C  0.67315642  0.83370362  0.50126122     0.09800
S1484       S  0.62019414  0.81754668  0.45551262    -0.24900
H1485       H  0.57949922  0.86486566  0.46646301     0.20100
S1486       S  0.62087307  0.92475054  0.55102113    -0.30600
H1487       H  0.66351034  0.88015206  0.53712498     0.10400
C1488       C  0.69341814  0.83265203  0.47709305     0.03600
C1489       C  0.71607007  0.81091510  0.47696738    -0.12900
C1490       C  0.71871997  0.79045961  0.50057533    -0.08500
C1491       C  0.70027533  0.79356968  0.52597521     0.07000
C1492       C  0.67758777  0.81497828  0.52597615    -0.13600
S1493       S  0.68954489  0.85798229  0.44587909    -0.30600
H1494       H  0.73027240  0.80840212  0.45754424     0.11300
S1495       S  0.70364737  0.76974016  0.55837982    -0.27700
H1496       H  0.66252218  0.81627533  0.54490333     0.08500
H1497       H  0.58972235  0.92585188  0.55480835     0.27000
H1498       H  0.71282716  0.84598284  0.42849225     0.21800
H1499       H  0.73357850  0.76151934  0.55350659     0.27100
H1500       H  0.64022483  0.79839592  0.47023627     0.15900
C1501       C  0.69400595  0.15457829  0.50011311    -0.11400
C1502       C  0.67472750  0.14866179  0.47613901     0.15200
C1503       C  0.67740512  0.16549801  0.44956186     0.02100
C1504       C  0.69871480  0.18821065  0.44790651    -0.15700
C1505       C  0.71684549  0.19534193  0.47243406    -0.10500
C1506       C  0.71457302  0.17812210  0.49886778     0.08800
C1507       C  0.65064412  0.12649033  0.48045604     0.09800
S1508       S  0.65348950  0.16040584  0.41748732    -0.24900
H1509       H  0.70009174  0.20160577  0.42774116     0.20100
S1510       S  0.73476203  0.18638688  0.53272244    -0.30600
H1511       H  0.69184112  0.14175525  0.52057073     0.10400
C1512       C  0.65032487  0.09915830  0.46488307     0.03600
C1513       C  0.62602141  0.07977771  0.46849497    -0.12900
C1514       C  0.60246438  0.08673601  0.48809741    -0.08500
C1515       C  0.60381099  0.11329752  0.50509243     0.07000
C1516       C  0.62749495  0.13321208  0.50054472    -0.13600
S1517       S  0.68123930  0.08850263  0.44121526    -0.30600
H1518       H  0.62537422  0.05902051  0.45603370     0.11300
S1519       S  0.57721606  0.12212533  0.53409975    -0.27700
H1520       H  0.62816716  0.15393836  0.51309418     0.08500
H1521       H  0.73570683  0.21754927  0.52876368     0.27000
H1522       H  0.66741928  0.06338715  0.42824615     0.21800
H1523       H  0.57240071  0.09237889  0.54319126     0.27100
H1524       H  0.62807598  0.15079958  0.43321758     0.15900
C1525       C  0.32479502  0.17824843  0.50506241    -0.11400
C1526       C  0.32657001  0.15425795  0.48505041     0.15200
C1527       C  0.30516419  0.15165345  0.46193726     0.02100
C1528       C  0.28391554  0.17438481  0.45804778    -0.15700
C1529       C  0.28343067  0.19933829  0.47700775    -0.10500
C1530       C  0.30330081  0.20056901  0.50147282     0.08800
C1531       C  0.35224597  0.13368226  0.48785418     0.09800
S1532       S  0.30486469  0.12103148  0.43561380    -0.24900
H1533       H  0.26875557  0.17337384  0.43920643     0.20100
S1534       S  0.30281989  0.23064683  0.52830919    -0.30600
H1535       H  0.34085563  0.18004713  0.52309863     0.10400
C1536       C  0.37719346  0.13600891  0.46875287     0.03600
C1537       C  0.40129765  0.11621470  0.47234195    -0.12900
C1538       C  0.40068197  0.09388238  0.49442567    -0.08500
C1539       C  0.37587059  0.09226075  0.51404052     0.07000
C1540       C  0.35201027  0.11212693  0.51052955    -0.13600
S1541       S  0.37810550  0.16404381  0.43966812    -0.30600
H1542       H  0.42019299  0.11743315  0.45726721     0.11300
S1543       S  0.37344662  0.06566149  0.54426847    -0.27700
H1544       H  0.33302504  0.11072715  0.52551505     0.08500
H1545       H  0.27193477  0.23605719  0.52609069     0.27000
H1546       H  0.40400703  0.15350660  0.42533903     0.21800
H1547       H  0.40421285  0.06582589  0.55064599     0.27100
H1548       H  0.32180822  0.10069924  0.45249240     0.15900
C1549       C  0.85406804  0.96510949  0.61287341    -0.11400
C1550       C  0.85194265  0.98482935  0.63701979     0.15200
C1551       C  0.87551229  0.00509398  0.64280605     0.02100
C1552       C  0.89959620  0.00677580  0.62289288    -0.15700
C1553       C  0.90120837  0.98765035  0.59811951    -0.10500
C1554       C  0.87863509  0.96588574  0.59375595     0.08800
C1555       C  0.82553022  0.98268944  0.65655174     0.09800
S1556       S  0.87633226  0.02897001  0.67532433    -0.24900
H1557       H  0.91702033  0.02320548  0.62661257     0.20100
S1558       S  0.88019689  0.93784104  0.56478472    -0.30600
H1559       H  0.83655800  0.94877246  0.60909126     0.10400
C1560       C  0.80455458  0.00611753  0.65882001     0.03600
C1561       C  0.78217184  0.00449649  0.68066564    -0.12900
C1562       C  0.78036601  0.97974790  0.69981325    -0.08500
C1563       C  0.79961925  0.95513435  0.69544363     0.07000
C1564       C  0.82215415  0.95695567  0.67405468    -0.13600
S1565       S  0.80707367  0.03855604  0.63487971    -0.30600
H1566       H  0.76742561  0.02335792  0.68419591     0.11300
S1567       S  0.79722087  0.92135279  0.71736951    -0.27700
H1568       H  0.83783338  0.93862309  0.67174262     0.08500
H1569       H  0.91152311  0.93572659  0.56413967     0.27000
H1570       H  0.78034126  0.05211245  0.64436791     0.21800
H1571       H  0.76620338  0.92326997  0.72214239     0.27100
H1572       H  0.86032978  0.00964103  0.69429061     0.15900
C1573       C  0.17576496  0.03614145  0.67311874    -0.11400
C1574       C  0.17807039  0.01203698  0.65336602     0.15200
C1575       C  0.20250444  0.99221853  0.65572212     0.02100
C1576       C  0.22268982  0.99553720  0.67942880    -0.15700
C1577       C  0.21915411  0.01853185  0.70050203    -0.10500
C1578       C  0.19596798  0.03973222  0.69652948     0.08800
C1579       C  0.15335150  0.00756346  0.63203032     0.09800
S1580       S  0.20821548  0.96152349  0.63021922    -0.24900
H1581       H  0.24022236  0.97909403  0.68235718     0.20100
S1582       S  0.18976379  0.07123590  0.72105778    -0.30600
H1583       H  0.15731980  0.05170618  0.67091940     0.10400
C1584       C  0.13009565  0.98709313  0.63793083     0.03600
C1585       C  0.10547956  0.98566931  0.61855663    -0.12900
C1586       C  0.10347687  0.00477904  0.59375018    -0.08500
C1587       C  0.12651350  0.02592422  0.58854127     0.07000
C1588       C  0.15125507  0.02679854  0.60748958    -0.13600
S1589       S  0.13141394  0.96325617  0.67046438    -0.30600
H1590       H  0.08802881  0.96931888  0.62244906     0.11300
S1591       S  0.12512295  0.05350953  0.55911997    -0.27700
H1592       H  0.16864975  0.04324359  0.60362969     0.08500
H1593       H  0.21845743  0.07245997  0.73349338     0.27000
H1594       H  0.10086390  0.95584720  0.67038031     0.21800
H1595       H  0.09390069  0.05702498  0.55969480     0.27100
H1596       H  0.19296097  0.97420768  0.60587343     0.15900
C1597       C  0.17700319  0.97867868  0.31677163    -0.11400
C1598       C  0.17346896  0.00069836  0.33876919     0.15200
C1599       C  0.19320180  0.02543086  0.33919472     0.02100
C1600       C  0.21414149  0.02890957  0.31609334    -0.15700
C1601       C  0.21626221  0.00779890  0.29300727    -0.10500
C1602       C  0.19829856  0.98183382  0.29411272     0.08800
C1603       C  0.14785773  0.99796071  0.35965337     0.09800
S1604       S  0.19191718  0.05382062  0.36782317    -0.24900
H1605       H  0.22786263  0.04887377  0.31539219     0.20100
S1606       S  0.20061954  0.95256184  0.26645897    -0.30600
H1607       H  0.16235907  0.95935589  0.31668561     0.10400
C1608       C  0.12233914  0.01628531  0.35683358     0.03600
C1609       C  0.09848685  0.01279227  0.37689695    -0.12900
C1610       C  0.09934676  0.99096039  0.39938222    -0.08500
C1611       C  0.12439986  0.97178573  0.40143421     0.07000
C1612       C  0.14844711  0.97562283  0.38164078    -0.13600
S1613       S  0.11981563  0.04373739  0.32732293    -0.30600
H1614       H  0.07936254  0.02756325  0.37553898     0.11300
S1615       S  0.12540519  0.94167039  0.42843161    -0.27700
H1616       H  0.16783760  0.96123440  0.38321191     0.08500
H1617       H  0.23061515  0.95768863  0.25862222     0.27000
H1618       H  0.09028396  0.05270292  0.33319322     0.21800
H1619       H  0.15206237  0.92841790  0.41832285     0.27100
H1620       H  0.17948644  0.03569081  0.39029998     0.15900
C1621       C  0.81777671  0.00528364  0.32432163    -0.11400
C1622       C  0.82185439  0.98171630  0.34445540     0.15200
C1623       C  0.80325510  0.95619105  0.34263659     0.02100
C1624       C  0.78291275  0.95372296  0.31891347    -0.15700
C1625       C  0.78056500  0.97647649  0.29745406    -0.10500
C1626       C  0.79744067  0.00295734  0.30090472     0.08800
C1627       C  0.84744112  0.98388478  0.36515882     0.09800
S1628       S  0.80541526  0.92562948  0.36890231    -0.24900
H1629       H  0.77007932  0.93332512  0.31625706     0.20100
S1630       S  0.79590243  0.03365602  0.27479622    -0.30600
H1631       H  0.83168447  0.02508270  0.32597783     0.10400
C1632       C  0.87424739  0.96820640  0.35977563     0.03600
C1633       C  0.89860171  0.97221334  0.37913782    -0.12900
C1634       C  0.89701490  0.99244073  0.40310859    -0.08500
C1635       C  0.87075875  0.00971020  0.40690357     0.07000
C1636       C  0.84614957  0.00476972  0.38837677    -0.13600
S1637       S  0.87777010  0.94395552  0.32767170    -0.30600
H1638       H  0.91874959  0.95921647  0.37589506     0.11300
S1639       S  0.86773833  0.03966563  0.43366207    -0.27700
H1640       H  0.82607097  0.01796328  0.39148749     0.08500
H1641       H  0.76639298  0.02855052  0.26573206     0.27000
H1642       H  0.90836727  0.93767954  0.33115256     0.21800
H1643       H  0.89801912  0.04803947  0.43226132     0.27100
H1644       H  0.81807692  0.94201172  0.39252241     0.15900
C1645       C  0.16537193  0.80624645  0.53792292    -0.11400
C1646       C  0.16576481  0.82434444  0.51229552     0.15200
C1647       C  0.18842412  0.81992269  0.49079789     0.02100
C1648       C  0.20960777  0.79726696  0.49498545    -0.15700
C1649       C  0.20973396  0.77953915  0.52088448    -0.10500
C1650       C  0.18727539  0.78432157  0.54270435     0.08800
C1651       C  0.14283674  0.84820917  0.50911769     0.09800
S1652       S  0.19193853  0.84298685  0.45796659    -0.24900
H1653       H  0.22655590  0.79373207  0.47808585     0.20100
S1654       S  0.18601978  0.76452697  0.57773515    -0.30600
H1655       H  0.14826053  0.80977096  0.55470488     0.10400
C1656       C  0.11876478  0.84561746  0.48895962     0.03600
C1657       C  0.09741753  0.86866557  0.48723541    -0.12900
C1658       C  0.09968630  0.89443506  0.50513808    -0.08500
C1659       C  0.12389192  0.89681886  0.52538948     0.07000
C1660       C  0.14512170  0.87383265  0.52703823    -0.13600
S1661       S  0.11490401  0.81267310  0.46591643    -0.30600
H1662       H  0.07891764  0.86670937  0.47177708     0.11300
S1663       S  0.12831936  0.92788353  0.55072640    -0.27700
H1664       H  0.16348520  0.87577004  0.54270050     0.08500
H1665       H  0.21707039  0.76146989  0.58040850     0.27000
H1666       H  0.08965050  0.82234099  0.44990563     0.21800
H1667       H  0.09769736  0.93065355  0.55724074     0.27100
H1668       H  0.18337473  0.86971845  0.47213144     0.15900
C1669       C  0.82586590  0.81129577  0.46653204    -0.11400
C1670       C  0.83179747  0.82559184  0.49380589     0.15200
C1671       C  0.81445688  0.81799715  0.51914576     0.02100
C1672       C  0.79242824  0.79574785  0.51678664    -0.15700
C1673       C  0.78671718  0.78121284  0.48956821    -0.10500
C1674       C  0.80344846  0.78950493  0.46410161     0.08800
C1675       C  0.85581486  0.84860923  0.49477071     0.09800
S1676       S  0.81906900  0.83588145  0.55501863    -0.24900
H1677       H  0.77949358  0.78970777  0.53633243     0.20100
S1678       S  0.79662782  0.77383803  0.42773974    -0.30600
H1679       H  0.83866997  0.81738962  0.44688253     0.10400
C1680       C  0.88364105  0.84309454  0.50842728     0.03600
C1681       C  0.90552522  0.86571326  0.50878575    -0.12900
C1682       C  0.90028914  0.89400997  0.49592180    -0.08500
C1683       C  0.87263096  0.89881810  0.48110202     0.07000
C1684       C  0.85080640  0.87630696  0.48100136    -0.13600
S1685       S  0.89144340  0.80706986  0.52498520    -0.30600
H1686       H  0.92677124  0.86135819  0.51936880     0.11300
S1687       S  0.86413965  0.93233459  0.46037337    -0.27700
H1688       H  0.82972586  0.88030426  0.46977814     0.08500
H1689       H  0.76569642  0.77044339  0.43193156     0.27000
H1690       H  0.92014901  0.81405929  0.53569942     0.21800
H1691       H  0.89242898  0.93381358  0.44672230     0.27100
H1692       H  0.83110755  0.86294682  0.54450732     0.15900
C1693       C  0.81322621  0.16048380  0.46434616    -0.11400
C1694       C  0.82883960  0.15990173  0.49161070     0.15200
C1695       C  0.82267784  0.18235026  0.51304049     0.02100
C1696       C  0.80180321  0.20480804  0.50661626    -0.15700
C1697       C  0.78575487  0.20493408  0.47972223    -0.10500
C1698       C  0.79174267  0.18251661  0.45823580     0.08800
C1699       C  0.85254940  0.13677721  0.49624842     0.09800
S1700       S  0.84005414  0.18318144  0.54933942    -0.24900
H1701       H  0.79714981  0.22181809  0.52321055     0.20100
S1702       S  0.77359595  0.18109611  0.42225629    -0.30600
H1703       H  0.81815047  0.14382489  0.44746056     0.10400
C1704       C  0.84613372  0.10587340  0.49577238     0.03600
C1705       C  0.86953835  0.08502023  0.49830180    -0.12900
C1706       C  0.89957579  0.09405263  0.50173288    -0.08500
C1707       C  0.90536646  0.12518479  0.50481645     0.07000
C1708       C  0.88215418  0.14594461  0.50103373    -0.13600
S1709       S  0.80801554  0.09283002  0.49279594    -0.30600
H1710       H  0.86425181  0.06143797  0.49726655     0.11300
S1711       S  0.94125598  0.14028064  0.51505341    -0.27700
H1712       H  0.88718871  0.16963167  0.50225230     0.08500
H1713       H  0.76539325  0.21133265  0.42069815     0.27000
H1714       H  0.81441159  0.06201875  0.49268989     0.21800
H1715       H  0.94625648  0.11894985  0.53766671     0.27100
H1716       H  0.84203570  0.15193140  0.55243591     0.15900
C1717       C  0.15043545  0.11024481  0.47089966    -0.11400
C1718       C  0.14646852  0.13837882  0.48421690     0.15200
C1719       C  0.11946250  0.14414763  0.49951129     0.02100
C1720       C  0.09766426  0.12160053  0.50201187    -0.15700
C1721       C  0.10149092  0.09324529  0.48882979    -0.10500
C1722       C  0.12838483  0.08790101  0.47269035     0.08800
C1723       C  0.17023802  0.16160177  0.48046705     0.09800
S1724       S  0.11120500  0.18014980  0.51565970    -0.24900
H1725       H  0.07735585  0.12644043  0.51419474     0.20100
S1726       S  0.13558201  0.05380069  0.45241280    -0.30600
H1727       H  0.17075480  0.10583128  0.45846727     0.10400
C1728       C  0.18849576  0.17125303  0.50439503     0.03600
C1729       C  0.21030848  0.19350099  0.49944250    -0.12900
C1730       C  0.21453780  0.20599040  0.47097360    -0.08500
C1731       C  0.19718196  0.19530732  0.44691171     0.07000
C1732       C  0.17493574  0.17383195  0.45197016    -0.13600
S1733       S  0.18448900  0.15481222  0.54102542    -0.30600
H1734       H  0.22411012  0.20133236  0.51768288     0.11300
S1735       S  0.20349676  0.20698485  0.40894491    -0.27700
H1736       H  0.16145779  0.16616452  0.43337453     0.08500
H1737       H  0.10681113  0.05248761  0.43982192     0.27000
H1738       H  0.20712771  0.17155929  0.55502141     0.21800
H1739       H  0.23430156  0.21219300  0.41223340     0.27100
H1740       H  0.12542368  0.19703281  0.49324435     0.15900
C1741       C  0.97076395  0.65242071  0.19389122    -0.11400
C1742       C  0.99107838  0.65530917  0.17015049     0.15200
C1743       C  0.00968118  0.68065180  0.16860777     0.02100
C1744       C  0.00679379  0.70309740  0.18995638    -0.15700
C1745       C  0.98573169  0.70107547  0.21314214    -0.10500
C1746       C  0.96750099  0.67525211  0.21518611     0.08800
C1747       C  0.99077667  0.63324219  0.14565053     0.09800
S1748       S  0.03653665  0.68631930  0.13906059    -0.24900
H1749       H  0.02077911  0.72282576  0.18808943     0.20100
S1750       S  0.93808373  0.67091229  0.24237244    -0.30600
H1751       H  0.95626418  0.63301250  0.19486585     0.10400
C1752       C  0.00485096  0.60532193  0.14859916     0.03600
C1753       C  0.00707761  0.58666311  0.12362807    -0.12900
C1754       C  0.99467653  0.59492222  0.09590407    -0.08500
C1755       C  0.97908273  0.62226971  0.09350035     0.07000
C1756       C  0.97773807  0.64134296  0.11830919    -0.13600
S1757       S  0.02053313  0.59373895  0.18393319    -0.30600
H1758       H  0.01861999  0.56547989  0.12571902     0.11300
S1759       S  0.95948943  0.63256768  0.05973309    -0.27700
H1760       H  0.96662794  0.66278401  0.11642755     0.08500
H1761       H  0.93199898  0.70152643  0.24592088     0.27000
H1762       H  0.02832478  0.56453440  0.17516123     0.21800
H1763       H  0.94014026  0.65331901  0.07328647     0.27100
H1764       H  0.04413728  0.65597645  0.13585728     0.15900
C1765       C  0.01043310  0.79881470  0.33693248    -0.11400
C1766       C  0.98564172  0.81618403  0.34515024     0.15200
C1767       C  0.95855816  0.81290384  0.32932929     0.02100
C1768       C  0.95682110  0.79224573  0.30594612    -0.15700
C1769       C  0.98198966  0.77591445  0.29678219    -0.10500
C1770       C  0.00906260  0.77916078  0.31253190     0.08800
C1771       C  0.98988311  0.84024910  0.36743204     0.09800
S1772       S  0.92649553  0.83653644  0.33576431    -0.24900
H1773       H  0.93624674  0.79051201  0.29329518     0.20100
S1774       S  0.04279123  0.76134084  0.29954151    -0.30600
H1775       H  0.03138386  0.80211210  0.34857172     0.10400
C1776       C  0.97446925  0.84067748  0.39489682     0.03600
C1777       C  0.97753305  0.86555325  0.41365908    -0.12900
C1778       C  0.99637971  0.88957582  0.40598441    -0.08500
C1779       C  0.01315579  0.88817154  0.37934025     0.07000
C1780       C  0.00924935  0.86386286  0.36012721    -0.13600
S1781       S  0.95145860  0.80947685  0.40638622    -0.30600
H1782       H  0.96509222  0.86639518  0.43441379     0.11300
S1783       S  0.04085699  0.91571483  0.36921761    -0.27700
H1784       H  0.02154246  0.86324773  0.33926387     0.08500
H1785       H  0.06074824  0.76902393  0.32415716     0.27000
H1786       H  0.94228030  0.82148125  0.43398100     0.21800
H1787       H  0.04985245  0.92229250  0.39860912     0.27100
H1788       H  0.94283449  0.86281598  0.34145517     0.15900
C1789       C  0.01422690  0.31733713  0.81788502    -0.11400
C1790       C  0.99335759  0.34062028  0.81878697     0.15200
C1791       C  0.97048998  0.34182733  0.79705182     0.02100
C1792       C  0.96747983  0.31827952  0.77655798    -0.15700
C1793       C  0.98704514  0.29379078  0.77723038    -0.10500
C1794       C  0.01135074  0.29400621  0.79736149     0.08800
C1795       C  0.99486183  0.36171395  0.84416779     0.09800
S1796       S  0.94342885  0.37169947  0.79561882    -0.24900
H1797       H  0.94869500  0.31818673  0.76131078     0.20100
S1798       S  0.03824681  0.26404021  0.79925385    -0.30600
H1799       H  0.03210037  0.31663118  0.83421072     0.10400
C1800       C  0.97567713  0.35880687  0.86900845     0.03600
C1801       C  0.97876107  0.37845595  0.89325785    -0.12900
C1802       C  0.00049865  0.40108337  0.89300601    -0.08500
C1803       C  0.01984772  0.40379380  0.86809687     0.07000
C1804       C  0.01692154  0.38389752  0.84407672    -0.13600
S1805       S  0.94751091  0.32985220  0.86992168    -0.30600
H1806       H  0.96373652  0.37672080  0.91215726     0.11300
S1807       S  0.04882826  0.43200654  0.86690722    -0.27700
H1808       H  0.03170536  0.38563529  0.82499327     0.08500
H1809       H  0.03608979  0.25615382  0.76890330     0.27000
H1810       H  0.93498452  0.33771542  0.89766167     0.21800
H1811       H  0.06308390  0.42177906  0.84080770     0.27100
H1812       H  0.96126297  0.39358460  0.80941229     0.15900
C1813       C  0.95238751  0.17302385  0.67066508    -0.11400
C1814       C  0.98114162  0.16887639  0.65887718     0.15200
C1815       C  0.00438826  0.18832778  0.66783189     0.02100
C1816       C  0.99860024  0.21058062  0.68899093    -0.15700
C1817       C  0.97035270  0.21339334  0.70222827    -0.10500
C1818       C  0.94678277  0.19467782  0.69251780     0.08800
C1819       C  0.98610081  0.14416552  0.63732237     0.09800
S1820       S  0.04233377  0.18480451  0.65470508    -0.24900
H1821       H  0.01693208  0.22432518  0.69685937     0.20100
S1822       S  0.90919774  0.19647209  0.70717806    -0.30600
H1823       H  0.93430493  0.15865321  0.66333378     0.10400
C1824       C  0.98179736  0.11396873  0.64544501     0.03600
C1825       C  0.98650296  0.09137285  0.62420338    -0.12900
C1826       C  0.99608594  0.09809579  0.59497212    -0.08500
C1827       C  0.00129304  0.12858982  0.58740323     0.07000
C1828       C  0.99547513  0.15106102  0.60830474    -0.13600
S1829       S  0.97146334  0.10394219  0.68319588    -0.30600
H1830       H  0.98260929  0.06832419  0.63052778     0.11300
S1831       S  0.01679868  0.14078593  0.55225734    -0.27700
H1832       H  0.99902885  0.17424476  0.60211858     0.08500
H1833       H  0.91209011  0.22250441  0.72432149     0.27000
H1834       H  0.96383162  0.07402543  0.67709983     0.21800
H1835       H  0.03912679  0.11864648  0.55218152     0.27100
H1836       H  0.04202477  0.15345023  0.65222967     0.15900
C1837       C  0.03473870  0.64438966  0.79318014    -0.11400
C1838       C  0.01628825  0.65373146  0.81681248     0.15200
C1839       C  0.00443710  0.68290941  0.81651127     0.02100
C1840       C  0.01320311  0.70278493  0.79411457    -0.15700
C1841       C  0.03315079  0.69415080  0.77145630    -0.10500
C1842       C  0.04335372  0.66426055  0.77046430     0.08800
C1843       C  0.01196015  0.63358401  0.84272869     0.09800
S1844       S  0.97897592  0.69641385  0.84468040    -0.24900
H1845       H  0.00505888  0.72561945  0.79483262     0.20100
S1846       S  0.06831743  0.65017261  0.74209485    -0.30600
H1847       H  0.04359471  0.62182621  0.79321580     0.10400
C1848       C  0.99394587  0.60790077  0.84074584     0.03600
C1849       C  0.99086443  0.58926996  0.86577311    -0.12900
C1850       C  0.00610463  0.59528042  0.89266344    -0.08500
C1851       C  0.02513685  0.62052231  0.89407995     0.07000
C1852       C  0.02714350  0.63980227  0.86945880    -0.13600
S1853       S  0.97471013  0.59904109  0.80638872    -0.30600
H1854       H  0.97665175  0.56971761  0.86430985     0.11300
S1855       S  0.04948206  0.62789784  0.92532484    -0.27700
H1856       H  0.04167758  0.65916940  0.87066312     0.08500
H1857       H  0.08025149  0.67766727  0.73281466     0.27000
H1858       H  0.96188175  0.57201341  0.81614502     0.21800
H1859       H  0.05715310  0.59776537  0.93006191     0.27100
H1860       H  0.96559343  0.66855920  0.85057226     0.15900
C1861       C  0.05413316  0.80827865  0.65568208    -0.11400
C1862       C  0.02590085  0.82175601  0.65814158     0.15200
C1863       C  0.00476113  0.80968310  0.67829088     0.02100
C1864       C  0.01233180  0.78470273  0.69548090    -0.15700
C1865       C  0.04121401  0.77267033  0.69450625    -0.10500
C1866       C  0.06235226  0.78454548  0.67443484     0.08800
C1867       C  0.01911565  0.84816525  0.63926437     0.09800
S1868       S  0.96887750  0.82670894  0.68510497    -0.24900
H1869       H  0.99640327  0.77624506  0.71166091     0.20100
S1870       S  0.10003125  0.77021510  0.67339386    -0.30600
H1871       H  0.07006773  0.81715815  0.63976494     0.10400
C1872       C  0.03614627  0.87474474  0.64104087     0.03600
C1873       C  0.02962220  0.89864603  0.62175380    -0.12900
C1874       C  0.00623657  0.89662942  0.60097211    -0.08500
C1875       C  0.98825822  0.87062715  0.60048592     0.07000
C1876       C  0.99530114  0.84650876  0.61902506    -0.13600
S1877       S  0.06586593  0.87854504  0.66811374    -0.30600
H1878       H  0.04328041  0.91864866  0.62226274     0.11300
S1879       S  0.95534343  0.86729004  0.57758121    -0.27700
H1880       H  0.98191028  0.82632848  0.61787187     0.08500
H1881       H  0.11149990  0.79153178  0.65326344     0.27000
H1882       H  0.07753333  0.90555896  0.65698883     0.21800
H1883       H  0.94837699  0.89794792  0.57801378     0.27100
H1884       H  0.97895294  0.85634834  0.68176651     0.15900
C1885       C  0.11147173  0.63903637  0.53033527    -0.11400
C1886       C  0.13560398  0.64235705  0.51070862     0.15200
C1887       C  0.13977049  0.62093036  0.48773125     0.02100
C1888       C  0.11942212  0.59716988  0.48473556    -0.15700
C1889       C  0.09523004  0.59396145  0.50444132    -0.10500
C1890       C  0.09158820  0.61508910  0.52772235     0.08800
C1891       C  0.15714328  0.66693657  0.51669062     0.09800
S1892       S  0.17052237  0.62232228  0.46167199    -0.24900
H1893       H  0.12239815  0.58115471  0.46680187     0.20100
S1894       S  0.06282718  0.61227251  0.55574915    -0.30600
H1895       H  0.10849272  0.65496532  0.54835887     0.10400
C1896       C  0.16083896  0.69153155  0.49727858     0.03600
C1897       C  0.18350829  0.71257688  0.50303152    -0.12900
C1898       C  0.20204759  0.70987169  0.52822848    -0.08500
C1899       C  0.19645456  0.68652760  0.54893848     0.07000
C1900       C  0.17419277  0.66546387  0.54288660    -0.13600
S1901       S  0.13687706  0.69599976  0.46517258    -0.30600
H1902       H  0.18782537  0.73021247  0.48701543     0.11300
S1903       S  0.21745888  0.68130545  0.58302590    -0.27700
H1904       H  0.17066993  0.64715665  0.55839931     0.08500
H1905       H  0.06223778  0.58082959  0.55661097     0.27000
H1906       H  0.14721417  0.72458544  0.45696965     0.21800
H1907       H  0.22923613  0.71029612  0.58508978     0.27100
H1908       H  0.19087309  0.63682262  0.48065895     0.15900
C1909       C  0.85620258  0.36679495  0.47369556    -0.11400
C1910       C  0.86307454  0.34053655  0.48938864     0.15200
C1911       C  0.88966338  0.33882594  0.50612482     0.02100
C1912       C  0.90866594  0.36360653  0.50697737    -0.15700
C1913       C  0.90196744  0.38999860  0.49114347    -0.10500
C1914       C  0.87547451  0.39137568  0.47403379     0.08800
C1915       C  0.84147641  0.31577520  0.48809939     0.09800
S1916       S  0.90045189  0.30611847  0.52724670    -0.24900
H1917       H  0.92896506  0.36221954  0.52011622     0.20100
S1918       S  0.86559760  0.42301308  0.45102453    -0.30600
H1919       H  0.83579651  0.36794282  0.46070620     0.10400
C1920       C  0.81926942  0.31254402  0.51011271     0.03600
C1921       C  0.79655772  0.29144634  0.50586955    -0.12900
C1922       C  0.79566185  0.27374712  0.48000097    -0.08500
C1923       C  0.81873740  0.27607487  0.45871026     0.07000
C1924       C  0.84151082  0.29702654  0.46300564    -0.13600
S1925       S  0.81876490  0.33668702  0.54247862    -0.30600
H1926       H  0.77855020  0.28971889  0.52195718     0.11300
S1927       S  0.81919145  0.25435946  0.42489220    -0.27700
H1928       H  0.85862218  0.29970386  0.44606560     0.08500
H1929       H  0.89475635  0.42797369  0.44032949     0.27000
H1930       H  0.79328949  0.32415310  0.55600646     0.21800
H1931       H  0.78909380  0.26006478  0.41796806     0.27100
H1932       H  0.88371678  0.28498047  0.51117638     0.15900
C1933       C  0.17093686  0.31514154  0.44410008    -0.11400
C1934       C  0.15910171  0.31868416  0.47294625     0.15200
C1935       C  0.16767258  0.29815640  0.49551696     0.02100
C1936       C  0.18870889  0.27584541  0.48909004    -0.15700
C1937       C  0.20261548  0.27431029  0.46104812    -0.10500
C1938       C  0.19295820  0.29375711  0.43804417     0.08800
C1939       C  0.13821795  0.34404735  0.47876829     0.09800
S1940       S  0.15487050  0.30075130  0.53366095    -0.24900
H1941       H  0.19639029  0.26145043  0.50700745     0.20100
S1942       S  0.20850452  0.29364696  0.40076380    -0.30600
H1943       H  0.16382303  0.33005057  0.42637159     0.10400
C1944       C  0.14652806  0.37413754  0.47349337     0.03600
C1945       C  0.12581192  0.39718637  0.47862168    -0.12900
C1946       C  0.09722302  0.39115270  0.49014269    -0.08500
C1947       C  0.08987245  0.36108996  0.49760827     0.07000
C1948       C  0.10983401  0.33799467  0.49050386    -0.13600
S1949       S  0.18374133  0.38354935  0.46088949    -0.30600
H1950       H  0.13184077  0.42000278  0.47318394     0.11300
S1951       S  0.05599365  0.35147359  0.51761079    -0.27700
H1952       H  0.10355238  0.31497518  0.49468538     0.08500
H1953       H  0.22500020  0.26711656  0.40279431     0.27000
H1954       H  0.18104497  0.41475615  0.46391582     0.21800
H1955       H  0.06390798  0.32188412  0.52482920     0.27100
H1956       H  0.15375745  0.33218240  0.53448279     0.15900
C1957       C  0.88385422  0.64008202  0.46451217    -0.11400
C1958       C  0.86000656  0.64160890  0.48467821     0.15200
C1959       C  0.85568753  0.61810860  0.50544442     0.02100
C1960       C  0.87611174  0.59438084  0.50644384    -0.15700
C1961       C  0.90041859  0.59323687  0.48672112    -0.10500
C1962       C  0.90399567  0.61613573  0.46517039     0.08800
C1963       C  0.83933335  0.66732716  0.48235440     0.09800
S1964       S  0.82462189  0.61692805  0.53110543    -0.24900
H1965       H  0.87317975  0.57682217  0.52290292     0.20100
S1966       S  0.93356533  0.61471008  0.43772764    -0.30600
H1967       H  0.88668449  0.65783484  0.44826592     0.10400
C1968       C  0.83856663  0.69034034  0.50388835     0.03600
C1969       C  0.81654760  0.71265401  0.50186773    -0.12900
C1970       C  0.79536329  0.71218611  0.47876390    -0.08500
C1971       C  0.79781540  0.69038168  0.45595694     0.07000
C1972       C  0.81978064  0.66834029  0.45800138    -0.13600
S1973       S  0.86491964  0.69064561  0.53440323    -0.30600
H1974       H  0.81443618  0.72911328  0.51948340     0.11300
S1975       S  0.77251364  0.68803229  0.42458315    -0.27700
H1976       H  0.82087890  0.65104740  0.44105842     0.08500
H1977       H  0.92205392  0.63689896  0.41862068     0.27000
H1978       H  0.85458975  0.71712460  0.54788365     0.21800
H1979       H  0.76088959  0.71708311  0.42655063     0.27100
H1980       H  0.80431739  0.63231103  0.51275205     0.15900
C1981       C  0.11313295  0.51654321  0.34445766    -0.11400
C1982       C  0.13734615  0.49676454  0.34446989     0.15200
C1983       C  0.14114317  0.47677339  0.36870327     0.02100
C1984       C  0.12060961  0.47716948  0.39235977    -0.15700
C1985       C  0.09633961  0.49701207  0.39238127    -0.10500
C1986       C  0.09281895  0.51712469  0.36816152     0.08800
C1987       C  0.15972818  0.49978642  0.32042398     0.09800
S1988       S  0.17188540  0.45072910  0.37147068    -0.24900
H1989       H  0.12332023  0.46152479  0.41067847     0.20100
S1990       S  0.06386450  0.54517307  0.36678834    -0.30600
H1991       H  0.11058072  0.53230619  0.32621401     0.10400
C1992       C  0.15881280  0.48203525  0.29443535     0.03600
C1993       C  0.18212644  0.48417388  0.27351513    -0.12900
C1994       C  0.20601550  0.50403305  0.27807770    -0.08500
C1995       C  0.20545808  0.52344728  0.30309427     0.07000
C1996       C  0.18252345  0.52085833  0.32404925    -0.13600
S1997       S  0.12895839  0.45543163  0.28901910    -0.30600
H1998       H  0.18262247  0.46916602  0.25455352     0.11300
S1999       S  0.23355575  0.55162390  0.31017526    -0.27700
H2000       H  0.18269402  0.53505666  0.34368371     0.08500
H2001       H  0.06358349  0.55070435  0.39772815     0.27000
H2002       H  0.13980787  0.44318699  0.26217435     0.21800
H2003       H  0.24326481  0.55490554  0.28053878     0.27100
H2004       H  0.18067860  0.45067029  0.34140802     0.15900
C2005       C  0.85615504  0.50950398  0.36545800    -0.11400
C2006       C  0.86363787  0.49231605  0.34028268     0.15200
C2007       C  0.89050347  0.47586425  0.34025796     0.02100
C2008       C  0.90887785  0.47652692  0.36548760    -0.15700
C2009       C  0.90156674  0.49373158  0.39080828    -0.10500
C2010       C  0.87495018  0.51079106  0.39047121     0.08800
C2011       C  0.84222953  0.49132254  0.31509167     0.09800
S2012       S  0.90255263  0.45335165  0.30902763    -0.24900
H2013       H  0.92925730  0.46343130  0.36527743     0.20100
S2014       S  0.86440029  0.53579166  0.42025102    -0.30600
H2015       H  0.83558119  0.52229005  0.36545795     0.10400
C2016       C  0.82378884  0.46620974  0.31042071     0.03600
C2017       C  0.80108643  0.46764297  0.28889341    -0.12900
C2018       C  0.79577085  0.49400656  0.27267054    -0.08500
C2019       C  0.81470585  0.51889296  0.27695339     0.07000
C2020       C  0.83811844  0.51706960  0.29762040    -0.13600
S2021       S  0.82715830  0.43351984  0.33395873    -0.30600
H2022       H  0.78603360  0.44887533  0.28608458     0.11300
S2023       S  0.80818834  0.55446915  0.25925395    -0.27700
H2024       H  0.85204757  0.53652190  0.30151974     0.08500
H2025       H  0.89361871  0.54586943  0.42596382     0.27000
H2026       H  0.80541041  0.41612916  0.31938151     0.21800
H2027       H  0.77713193  0.55420433  0.26401523     0.27100
H2028       H  0.88776358  0.46978590  0.28673696     0.15900
C2029       C  0.14243858  0.51316850  0.61663223    -0.11400
C2030       C  0.13344153  0.50321853  0.64492489     0.15200
C2031       C  0.10479519  0.49097822  0.64883479     0.02100
C2032       C  0.08605181  0.48808777  0.62412391    -0.15700
C2033       C  0.09469721  0.49809955  0.59552390    -0.10500
C2034       C  0.12313285  0.51159626  0.59214468     0.08800
C2035       C  0.15442627  0.50629399  0.66994954     0.09800
S2036       S  0.09076506  0.47914252  0.68479526    -0.24900
H2037       H  0.06407713  0.47881019  0.62760025     0.20100
S2038       S  0.13494691  0.53015509  0.55843466    -0.30600
H2039       H  0.16431138  0.52323667  0.61389078     0.10400
C2040       C  0.17082036  0.48162065  0.68050051     0.03600
C2041       C  0.19267830  0.48614587  0.70237290    -0.12900
C2042       C  0.19819773  0.51480177  0.71385173    -0.08500
C2043       C  0.18091157  0.53922077  0.70399715     0.07000
C2044       C  0.15919011  0.53475667  0.68210998    -0.13600
S2045       S  0.16539405  0.44491942  0.66449683    -0.30600
H2046       H  0.20685350  0.46773963  0.70919096     0.11300
S2047       S  0.18746178  0.57683236  0.71672625    -0.27700
H2048       H  0.14648595  0.55368087  0.67386888     0.08500
H2049       H  0.10781600  0.54570827  0.55519962     0.27000
H2050       H  0.18849426  0.43054810  0.68021886     0.21800
H2051       H  0.19334912  0.56810667  0.74625823     0.27100
H2052       H  0.10650195  0.50031784  0.70187965     0.15900
C2053       C  0.85519103  0.47190893  0.62000645    -0.11400
C2054       C  0.86218029  0.48857562  0.64565911     0.15200
C2055       C  0.88806128  0.50657809  0.64575751     0.02100
C2056       C  0.90612388  0.50763522  0.62020546    -0.15700
C2057       C  0.89954867  0.49050813  0.59458414    -0.10500
C2058       C  0.87366076  0.47233886  0.59470075     0.08800
C2059       C  0.84150195  0.48676492  0.67147410     0.09800
S2060       S  0.89949911  0.52844454  0.67769283    -0.24900
H2061       H  0.92591935  0.52162077  0.62054286     0.20100
S2062       S  0.86362110  0.44802484  0.56417133    -0.30600
H2063       H  0.83536188  0.45797178  0.61993281     0.10400
C2064       C  0.82032907  0.50939113  0.67704340     0.03600
C2065       C  0.79772930  0.50438652  0.69818130    -0.12900
C2066       C  0.79611548  0.47740744  0.71417846    -0.08500
C2067       C  0.81846085  0.45556970  0.70989919     0.07000
C2068       C  0.84098445  0.46052512  0.68871251    -0.13600
S2069       S  0.82090445  0.54382177  0.65592166    -0.30600
H2070       H  0.78039546  0.52098068  0.70136189     0.11300
S2071       S  0.81812045  0.42012812  0.72900150    -0.27700
H2072       H  0.85735683  0.44316765  0.68452992     0.08500
H2073       H  0.89301923  0.43914543  0.55754458     0.27000
H2074       H  0.79817097  0.55836149  0.67205371     0.21800
H2075       H  0.78722813  0.41552109  0.72569713     0.27100
H2076       H  0.88541157  0.51090692  0.69962923     0.15900
C2077       C  0.01258080  0.64175814  0.37465406    -0.11400
C2078       C  0.99410233  0.63754976  0.34969261     0.15200
C2079       C  0.97768130  0.61066967  0.34707913     0.02100
C2080       C  0.97986063  0.58891205  0.36957547    -0.15700
C2081       C  0.99788596  0.59323545  0.39496169    -0.10500
C2082       C  0.01465567  0.62001678  0.39732083     0.08800
C2083       C  0.99186731  0.66200960  0.32731333     0.09800
S2084       S  0.95276542  0.60290980  0.31626567    -0.24900
H2085       H  0.96683567  0.56856957  0.36749069     0.20100
S2086       S  0.03966110  0.62634953  0.42841416    -0.30600
H2087       H  0.02521973  0.66234523  0.37640200     0.10400
C2088       C  0.96890286  0.68348211  0.32877406     0.03600
C2089       C  0.96734748  0.70600092  0.30699125    -0.12900
C2090       C  0.98840966  0.70785909  0.28377361    -0.08500
C2091       C  0.01203065  0.68676394  0.28291083     0.07000
C2092       C  0.01320040  0.66391221  0.30440773    -0.13600
S2093       S  0.94155268  0.68224561  0.35841623    -0.30600
H2094       H  0.94936813  0.72214860  0.30770516     0.11300
S2095       S  0.04232399  0.68841377  0.25638478    -0.27700
H2096       H  0.03113530  0.64765660  0.30354236     0.08500
H2097       H  0.05063625  0.65430108  0.41898128     0.27000
H2098       H  0.92338655  0.70555164  0.34762512     0.21800
H2099       H  0.03969233  0.71896972  0.24963596     0.27100
H2100       H  0.96389377  0.62399200  0.29585765     0.15900
C2101       C  0.96104267  0.31262858  0.66861042    -0.11400
C2102       C  0.98991754  0.32163363  0.66032824     0.15200
C2103       C  0.01462010  0.30996015  0.67629979     0.02100
C2104       C  0.00981331  0.29064612  0.70066364    -0.15700
C2105       C  0.98086693  0.28168352  0.70875344    -0.10500
C2106       C  0.95631840  0.29274600  0.69233389     0.08800
C2107       C  0.99327062  0.34451768  0.63621486     0.09800
S2108       S  0.05270916  0.31789243  0.66581861    -0.24900
H2109       H  0.02874745  0.28178027  0.71284979     0.20100
S2110       S  0.91829897  0.28270953  0.70082225    -0.30600
H2111       H  0.94192471  0.32154983  0.65673037     0.10400
C2112       C  0.98365686  0.33920480  0.60664201     0.03600
C2113       C  0.98587234  0.36209706  0.58511241    -0.12900
C2114       C  0.99816687  0.39025345  0.59212325    -0.08500
C2115       C  0.00900505  0.39482718  0.62159667     0.07000
C2116       C  0.00578090  0.37238367  0.64325360    -0.13600
S2117       S  0.96935424  0.30295124  0.59598907    -0.30600
H2118       H  0.97764855  0.35807944  0.56273194     0.11300
S2119       S  0.02866982  0.42799175  0.63292939    -0.27700
H2120       H  0.01356790  0.37652574  0.66581172     0.08500
H2121       H  0.92267279  0.27814594  0.73155996     0.27000
H2122       H  0.96612938  0.30907965  0.56532709     0.21800
H2123       H  0.04544915  0.42989856  0.60636605     0.27100
H2124       H  0.04699018  0.32083352  0.63504071     0.15900
C2125       C  0.99470004  0.66729556  0.68110645    -0.11400
C2126       C  0.01525415  0.65999539  0.65851035     0.15200
C2127       C  0.04202847  0.67661163  0.65626060     0.02100
C2128       C  0.04868950  0.69813929  0.67790950    -0.15700
C2129       C  0.02885313  0.70453908  0.70137093    -0.10500
C2130       C  0.00099756  0.68965966  0.70224526     0.08800
C2131       C  0.00870187  0.63456235  0.63810311     0.09800
S2132       S  0.06875576  0.67130042  0.62649586    -0.24900
H2133       H  0.06990545  0.70971864  0.67682368     0.20100
S2134       S  0.97229379  0.69859785  0.72898091    -0.30600
H2135       H  0.97369419  0.65530065  0.68241612     0.10400
C2136       C  0.02628938  0.60834256  0.63830019     0.03600
C2137       C  0.02109482  0.58604826  0.61686852    -0.12900
C2138       C  0.99825483  0.58898598  0.59555823    -0.08500
C2139       C  0.97912549  0.61410137  0.59696515     0.07000
C2140       C  0.98481707  0.63679253  0.61788309    -0.13600
S2141       S  0.05530816  0.60308346  0.66588543    -0.30600
H2142       H  0.03554760  0.56663491  0.61605172     0.11300
S2143       S  0.94663080  0.61797960  0.57345308    -0.27700
H2144       H  0.97064109  0.65643412  0.61829323     0.08500
H2145       H  0.98277792  0.72744379  0.73569946     0.27000
H2146       H  0.06232155  0.57334448  0.65833060     0.21800
H2147       H  0.94135999  0.58713394  0.57002164     0.27100
H2148       H  0.04799190  0.66190041  0.60489900     0.15900
C2149       C  0.98922106  0.35180216  0.11987109    -0.11400
C2150       C  0.00657840  0.35901763  0.14500925     0.15200
C2151       C  0.02134835  0.38687761  0.14589992     0.02100
C2152       C  0.01878439  0.40663234  0.12172803    -0.15700
C2153       C  0.00130980  0.39963305  0.09649050    -0.10500
C2154       C  0.98604101  0.37189025  0.09593361     0.08800
C2155       C  0.01010147  0.33653364  0.16927207     0.09800
S2156       S  0.04379008  0.39847936  0.17729902    -0.24900
H2157       H  0.03063535  0.42775963  0.12269053     0.20100
S2158       S  0.96120281  0.36126821  0.06611549    -0.30600
H2159       H  0.97779766  0.33043185  0.11905459     0.10400
C2160       C  0.98655730  0.32939443  0.18902636     0.03600
C2161       C  0.99052050  0.30667397  0.21048049    -0.12900
C2162       C  0.01752951  0.29080640  0.21235780    -0.08500
C2163       C  0.04162862  0.29939773  0.19376593     0.07000
C2164       C  0.03762679  0.32196453  0.17244461    -0.13600
S2165       S  0.95120508  0.34859593  0.18630002    -0.30600
H2166       H  0.97194318  0.29993385  0.22446362     0.11300
S2167       S  0.07782901  0.28176047  0.19547564    -0.27700
H2168       H  0.05597231  0.32782456  0.15774122     0.08500
H2169       H  0.94873222  0.38996329  0.06263679     0.27000
H2170       H  0.93930514  0.33772702  0.21331025     0.21800
H2171       H  0.07546361  0.27186549  0.22520048     0.27100
H2172       H  0.02660867  0.38384107  0.19919918     0.15900
C2173       C  0.02217971  0.18630504  0.33633586    -0.11400
C2174       C  0.00110547  0.16323947  0.33292824     0.15200
C2175       C  0.98168099  0.16374690  0.30812819     0.02100
C2176       C  0.98446263  0.18661118  0.28696465    -0.15700
C2177       C  0.00659342  0.20886843  0.28922519    -0.10500
C2178       C  0.02550717  0.20879389  0.31458287     0.08800
C2179       C  0.00022665  0.13868352  0.35516161     0.09800
S2180       S  0.95401007  0.13514265  0.30074956    -0.24900
H2181       H  0.97005597  0.18616447  0.26750250     0.20100
S2182       S  0.05547569  0.23518096  0.31983293    -0.30600
H2183       H  0.03708058  0.18597914  0.35542098     0.10400
C2184       C  0.01413366  0.11088791  0.34973796     0.03600
C2185       C  0.01186130  0.08794375  0.37110209    -0.12900
C2186       C  0.99551651  0.09207136  0.39761151    -0.08500
C2187       C  0.98025818  0.11950946  0.40205859     0.07000
C2188       C  0.98330811  0.14259566  0.38116200    -0.13600
S2189       S  0.03469476  0.10466917  0.31558221    -0.30600
H2190       H  0.02347627  0.06700537  0.36749027     0.11300
S2191       S  0.95544442  0.12615342  0.43313135    -0.27700
H2192       H  0.97166220  0.16354473  0.38474331     0.08500
H2193       H  0.06264686  0.23828018  0.28943031     0.27000
H2194       H  0.03995454  0.07397561  0.32009040     0.21800
H2195       H  0.94455544  0.09663598  0.43448300     0.27100
H2196       H  0.95505631  0.11951413  0.32789496     0.15900
C2197       C  0.98397004  0.30633419  0.32015912    -0.11400
C2198       C  0.00838061  0.32572078  0.32408233     0.15200
C2199       C  0.03374397  0.32234306  0.30559296     0.02100
C2200       C  0.03431636  0.29951629  0.28420824    -0.15700
C2201       C  0.01003976  0.27997107  0.28040243    -0.10500
C2202       C  0.98431343  0.28388584  0.29825485     0.08800
C2203       C  0.00674470  0.34917552  0.34758214     0.09800
S2204       S  0.06595786  0.34650972  0.30793697    -0.24900
H2205       H  0.05396531  0.29682484  0.27034956     0.20100
S2206       S  0.95086251  0.26196594  0.29351453    -0.30600
H2207       H  0.96429576  0.30904227  0.33401854     0.10400
C2208       C  0.98739872  0.37391299  0.34479592     0.03600
C2209       C  0.98684330  0.39588805  0.36726248    -0.12900
C2210       C  0.00507443  0.39359703  0.39273368    -0.08500
C2211       C  0.02481927  0.36893674  0.39515424     0.07000
C2212       C  0.02524397  0.34698342  0.37277970    -0.13600
S2213       S  0.96351265  0.37763829  0.31249148    -0.30600
H2214       H  0.97166823  0.41464496  0.36528816     0.11300
S2215       S  0.05100687  0.36485796  0.42546348    -0.27700
H2216       H  0.04044185  0.32821682  0.37479257     0.08500
H2217       H  0.95591959  0.25411056  0.26354645     0.27000
H2218       H  0.95496960  0.40741479  0.31786568     0.21800
H2219       H  0.05768595  0.39555932  0.42745743     0.27100
H2220       H  0.05031215  0.37233147  0.31665680     0.15900
loop_ 
_geom_bond_atom_site_label_1 
_geom_bond_atom_site_label_2 
_geom_bond_distance 
_geom_bond_site_symmetry_2 
_ccdc_geom_bond_type 
N1            C5   1.361       .  A
N1            C2   1.365       .  A
N1         C2201   1.443       .  S
C2            C3   1.383       .  A
C2         C2177   1.490       .  S
C3            C4   1.370       .  A
C3            H6   1.082       .  S
C4            C5   1.379       .  A
C4            H7   1.082       .  S
C5         C2162   1.485       .  S
O8          Zr44   2.452   1_455  S
O8           C19   1.294       .  A
O9          Zr43   2.449       .  S
O9           C20   1.293       .  A
O10         Zr16   2.415   1_455  S
O10          C21   1.286       .  A
O11         Zr16   2.411       .  S
O11          C22   1.288       .  A
O12         Zr46   2.452       .  S
O12          C22   1.295       .  A
O13         Zr45   2.467       .  S
O13          C21   1.298       .  A
O14         Zr16   2.455       .  S
O14          C20   1.295       .  A
O15         Zr16   2.447   1_455  S
O15          C19   1.293       .  A
Zr16         O17   2.339       .  S
Zr16         O18   2.336   1_655  S
Zr16         O26   2.347       .  S
Zr16         O24   2.339   1_655  S
O17         Zr43   2.331       .  S
O17         Zr46   2.350       .  S
O18         Zr44   2.337   1_455  S
O18         Zr45   2.343       .  S
C19        C2210   1.488       .  S
C20        C2114   1.500       .  S
C21        C1946   1.493       .  S
C22        C1913   1.475       .  S
H23          O24   0.966       .  S
O24         Zr43   2.342   1_455  S
O24         Zr45   2.355       .  S
H25          O26   0.965       .  S
O26         Zr44   2.341       .  S
O26         Zr46   2.358       .  S
O27         Zr43   2.433       .  S
O27          C50   1.291       .  A
O28         Zr44   2.446       .  S
O28          C51   1.293       .  A
O29         Zr45   2.453       .  S
O29          C52   1.295       .  A
O30         Zr46   2.470       .  S
O30          C53   1.298       .  A
O31         Zr46   2.464       .  S
O31          C54   1.297       .  A
O32         Zr45   2.466       .  S
O32          C55   1.298       .  A
O33         Zr47   2.426   1_455  S
O33          C56   1.290       .  A
O34         Zr47   2.415       .  S
O34          C57   1.288       .  A
O35         Zr45   2.464       .  S
O35          C56   1.297       .  A
O36         Zr46   2.464       .  S
O36          C57   1.297       .  A
O37         Zr43   2.418   1_455  S
O37          C52   1.289       .  A
O38         Zr44   2.415   1_455  S
O38          C55   1.288       .  A
O39         Zr44   2.421       .  S
O39          C54   1.290       .  A
O40         Zr43   2.421       .  S
O40          C53   1.289       .  A
O41         Zr47   2.456       .  S
O41          C50   1.295       .  A
O42         Zr47   2.450       .  S
O42          C51   1.294       .  A
Zr43         O49   2.336   1_655  S
Zr43         O61   2.344       .  S
Zr44         O48   2.335       .  S
Zr44         O59   2.347   1_655  S
Zr45         O49   2.345       .  S
Zr45         O59   2.348       .  S
Zr46         O48   2.342       .  S
Zr46         O61   2.347       .  S
Zr47         O48   2.337       .  S
Zr47         O49   2.331   1_655  S
Zr47         O61   2.343       .  S
Zr47         O59   2.344   1_655  S
C50        C2138   1.481       .  S
C51        C2081   1.491       .  S
C52        C2033   1.486       .  S
C53        C2057   1.486       .  S
C54        C2009   1.484       .  S
C55        C1985   1.477       .  S
C56        C1889   1.481       .  S
C57        C1961   1.477       .  S
H58          O59   0.964       .  S
H60          O61   0.966       .  S
N62          C66   1.357       .  A
N62          C63   1.359       .  A
N62        C2129   1.445       .  S
C63          C64   1.383       .  A
C63        C1841   1.477       .  S
C64          C65   1.371       .  A
C64          H67   1.082       .  S
C65          C66   1.380       .  A
C65          H68   1.082       .  S
C66        C1865   1.472       .  S
N69          C73   1.356       .  A
N69          C70   1.357       .  A
N69        C2105   1.443       .  S
C70          C71   1.382       .  A
C70        C1817   1.474       .  S
C71          C72   1.373       .  A
C71          H74   1.082       .  S
C72          C73   1.382       .  A
C72          H75   1.082       .  S
C73        C1793   1.476       .  S
N76          C80   1.361       .  A
N76          C77   1.363       .  A
N76        C2090   1.447       .  S
C77          C78   1.383       .  A
C77        C1745   1.481       .  S
C78          C79   1.369       .  A
C78          H81   1.082       .  S
C79          C80   1.379       .  A
C79          H82   1.082       .  S
C80        C1769   1.480       .  S
O83        Zr119   2.454   1_545  S
O83          C94   1.296       .  A
O84        Zr118   2.453   1_645  S
O84          C95   1.296       .  A
O85         Zr91   2.458   1_655  S
O85          C96   1.295       .  A
O86         Zr91   2.476       .  S
O86          C97   1.300       .  A
O87        Zr121   2.445   1_545  S
O87          C97   1.292       .  A
O88        Zr120   2.447   1_545  S
O88          C96   1.294       .  A
O89         Zr91   2.426   1_655  S
O89          C95   1.289       .  A
O90         Zr91   2.427   1_655  S
O90          C94   1.290       .  A
Zr91         O92   2.341       .  S
Zr91         O93   2.344   1_455  S
Zr91        O101   2.341       .  S
Zr91         O99   2.344   1_455  S
O92        Zr118   2.351   1_545  S
O92        Zr121   2.342   1_545  S
O93        Zr119   2.348   1_545  S
O93        Zr120   2.339   1_545  S
C94        C2186   1.483       .  S
C95        C1826   1.493       .  S
C96        C1706   1.506       .  S
C97        C1721   1.504       .  S
H98          O99   0.966       .  S
O99        Zr118   2.344   1_645  S
O99        Zr120   2.337   1_545  S
H100        O101   0.966       .  S
O101       Zr119   2.344   1_445  S
O101       Zr121   2.339   1_545  S
O102       Zr118   2.453       .  S
O102        C125   1.295       .  A
O103       Zr119   2.456       .  S
O103        C126   1.296       .  A
O104       Zr120   2.409       .  S
O104        C127   1.287       .  A
O105       Zr121   2.414       .  S
O105        C128   1.287   1_565  A
O106       Zr121   2.417       .  S
O106        C129   1.288       .  A
O107       Zr120   2.424       .  S
O107        C130   1.290       .  A
O108       Zr122   2.454   1_655  S
O108        C131   1.295       .  A
O109       Zr122   2.450       .  S
O109        C132   1.294       .  A
O110       Zr120   2.453       .  S
O110        C131   1.294       .  A
O111       Zr121   2.449       .  S
O111        C132   1.294       .  A
O112       Zr118   2.459   1_655  S
O112        C127   1.296       .  A
O113       Zr119   2.459       .  S
O113        C130   1.296       .  A
O114       Zr119   2.461   1_455  S
O114        C129   1.297       .  A
O115       Zr118   2.461       .  S
O115        C128   1.297   1_565  A
O116       Zr122   2.429       .  S
O116        C125   1.290       .  A
O117       Zr122   2.408   1_655  S
O117        C126   1.287       .  A
Zr118       O124   2.352   1_455  S
Zr118       O136   2.342       .  S
Zr119       O123   2.350   1_655  S
Zr119       O134   2.340       .  S
Zr120       O124   2.346       .  S
Zr120       O134   2.331       .  S
Zr121       O123   2.338       .  S
Zr121       O136   2.338       .  S
Zr122       O123   2.344       .  S
Zr122       O124   2.338   1_455  S
Zr122       O136   2.339       .  S
Zr122       O134   2.342   1_455  S
C125       C1874   1.477       .  S
C126       C1778   1.472       .  S
C127       C1553   1.471       .  S
C128       C1586   1.475       .  S
C129       C1610   1.478       .  S
C130       C1634   1.481       .  S
C131       C1682   1.498       .  S
C132       C1658   1.487       .  S
H133        O134   0.966       .  S
H135        O136   0.964       .  S
N137        C141   1.356       .  A
N137        C138   1.359       .  A
N137       C1730   1.444       .  S
C138        C139   1.383       .  A
C138       C1937   1.479       .  S
C139        C140   1.372       .  A
C139        H142   1.082       .  S
C140        C141   1.382       .  A
C140        H143   1.082       .  S
C141       C1529   1.476       .  S
N144        C148   1.357       .  A
N144        C145   1.356       .  A
N144       C1697   1.444       .  S
C145        C146   1.380       .  A
C145       C1922   1.469       .  S
C146        C147   1.370       .  A
C146        H149   1.082       .  S
C147        C148   1.383       .  A
C147        H150   1.082       .  S
C148       C1505   1.474       .  S
N151        C155   1.360       .  A
N151        C152   1.357       .  A
N151       C1673   1.446       .  S
C152        C153   1.380       .  A
C152       C1490   1.472       .  S
C153        C154   1.367       .  A
C153        H156   1.082       .  S
C154        C155   1.382       .  A
C154        H157   1.082       .  S
C155       C1970   1.475       .  S
N158        C162   1.361       .  A
N158        C159   1.363       .  A
N158       C1649   1.447       .  S
C159        C160   1.384       .  A
C159       C1898   1.484       .  S
C160        C161   1.370       .  A
C160        H163   1.082       .  S
C161        C162   1.379       .  A
C161        H164   1.082       .  S
C162       C1457   1.480       .  S
N165        C169   1.360       .  A
N165        C166   1.357       .  A
N165       C1442   1.445       .  S
C166        C167   1.380       .  A
C166       C1625   1.472       .  S
C167        C168   1.370       .  A
C167        H170   1.082       .  S
C168        C169   1.382       .  A
C168        H171   1.082       .  S
C169       C1409   1.480       .  S
O172       Zr208   2.460       .  S
O172        C183   1.296       .  A
O173       Zr207   2.449       .  S
O173        C184   1.294       .  A
O174       Zr180   2.442       .  S
O174        C185   1.293       .  A
O175       Zr180   2.452       .  S
O175        C186   1.295   1_565  A
O176       Zr210   2.444       .  S
O176        C186   1.292   1_565  A
O177       Zr209   2.444       .  S
O177        C185   1.293       .  A
O178       Zr180   2.426       .  S
O178        C184   1.291       .  A
O179       Zr180   2.428   1_545  S
O179        C183   1.290       .  A
Zr180       O181   2.337       .  S
Zr180       O182   2.338   1_565  S
Zr180       O190   2.334   1_565  S
Zr180       O188   2.348       .  S
O181       Zr207   2.350       .  S
O181       Zr210   2.338       .  S
O182       Zr208   2.344       .  S
O182       Zr209   2.342   1_545  S
C183       C1538   1.479       .  S
C184       C1466   1.480       .  S
C185       C1337   1.490   1_565  S
C186       C1385   1.489       .  S
H187        O188   0.965       .  S
O188       Zr207   2.352       .  S
O188       Zr209   2.344       .  S
H189        O190   0.966       .  S
O190       Zr208   2.341       .  S
O190       Zr210   2.335   1_545  S
O191       Zr207   2.462       .  S
O191        C214   1.296       .  A
O192       Zr208   2.452       .  S
O192        C215   1.295       .  A
O193       Zr209   2.436       .  S
O193        C216   1.292       .  A
O194       Zr210   2.416       .  S
O194        C217   1.289       .  A
O195       Zr210   2.406   1_545  S
O195        C218   1.287       .  A
O196       Zr209   2.434   1_545  S
O196        C219   1.291       .  A
O197       Zr211   2.439       .  S
O197        C220   1.291       .  A
O198       Zr211   2.451       .  S
O198        C221   1.294       .  A
O199       Zr209   2.447       .  S
O199        C220   1.294       .  A
O200       Zr210   2.449       .  S
O200        C221   1.294       .  A
O201       Zr207   2.455       .  S
O201        C216   1.295       .  A
O202       Zr208   2.451       .  S
O202        C219   1.295       .  A
O203       Zr208   2.461       .  S
O203        C218   1.296       .  A
O204       Zr207   2.445       .  S
O204        C217   1.294       .  A
O205       Zr211   2.415       .  S
O205        C214   1.288       .  A
O206       Zr211   2.413   1_545  S
O206        C215   1.288       .  A
Zr207       O213   2.340       .  S
Zr207       O225   2.348       .  S
Zr208       O212   2.343       .  S
Zr208       O223   2.350       .  S
Zr209       O213   2.338       .  S
Zr209       O223   2.342   1_565  S
Zr210       O212   2.337   1_565  S
Zr210       O225   2.334       .  S
Zr211       O212   2.333   1_565  S
Zr211       O213   2.339       .  S
Zr211       O225   2.336       .  S
Zr211       O223   2.340   1_565  S
C214       C1481   1.474       .  S
C215       C1514   1.473       .  S
C216       C1265   1.482       .  S
C217       C1313   1.472       .  S
C218       C1289   1.487       .  S
C219       C1241   1.477       .  S
C220       C1433   1.496       .  S
C221       C1361   1.494       .  S
H222        O223   0.964       .  S
H224        O225   0.964       .  S
N226        C230   1.362       .  A
N226        C227   1.360       .  A
N226       C1394   1.448       .  S
C227        C228   1.380       .  A
C227       C1217   1.475       .  S
C228        C229   1.368       .  A
C228        H231   1.082       .  S
C229        C230   1.383       .  A
C229        H232   1.082       .  S
C230       C1577   1.478       .  S
N233        C237   1.361       .  A
N233        C234   1.357       .  A
N233       C1370   1.446       .  S
C234        C235   1.380       .  A
C234       C1562   1.470       .  S
C235        C236   1.366       .  A
C235        H238   1.082       .  S
C236        C237   1.383       .  A
C236        H239   1.082       .  S
C237       C1193   1.477       .  S
N240        C244   1.355       .  A
N240        C241   1.359       .  A
N240       C1346   1.440       .  S
C241        C242   1.383       .  A
C241       C1178   1.482       .  S
C242        C243   1.374       .  A
C242        H245   1.082       .  S
C243        C244   1.381       .  A
C243        H246   1.082       .  S
C244       C1601   1.478       .  S
O247       Zr283   2.462   1_554  S
O247        C258   1.296       .  A
O248       Zr282   2.461       .  S
O248        C259   1.298       .  A
O249       Zr255   2.447   1_545  S
O249        C260   1.293       .  A
O250       Zr255   2.458       .  S
O250        C261   1.294       .  A
O251       Zr285   2.450   1_554  S
O251        C261   1.294       .  A
O252       Zr284   2.451   1_554  S
O252        C260   1.295       .  A
O253       Zr255   2.420       .  S
O253        C259   1.287       .  A
O254       Zr255   2.421       .  S
O254        C258   1.291       .  A
Zr255       O256   2.337       .  S
Zr255       O257   2.339   1_565  S
Zr255       O265   2.337       .  S
Zr255       O263   2.340   1_565  S
O256       Zr282   2.354       .  S
O256       Zr285   2.335   1_554  S
O257       Zr283   2.347   1_544  S
O257       Zr284   2.338   1_554  S
C258       C1418   1.498       .  S
C259       C1169   1.496       .  S
C260       C1145   1.501       .  S
C261       C1121   1.509       .  S
H262        O263   0.966       .  S
O263       Zr282   2.346   1_545  S
O263       Zr284   2.336   1_554  S
H264        O265   0.966       .  S
O265       Zr283   2.353   1_554  S
O265       Zr285   2.337   1_554  S
O266       Zr282   2.466   1_556  S
O266        C289   1.297       .  A
O267       Zr283   2.471       .  S
O267        C290   1.298       .  A
O268       Zr284   2.406   1_554  S
O268        C291   1.287       .  A
O269       Zr285   2.429   1_554  S
O269        C292   1.291       .  A
O270       Zr285   2.416       .  S
O270        C293   1.289       .  A
O271       Zr284   2.409   1_554  S
O271        C294   1.286       .  A
O272       Zr286   2.443   1_545  S
O272        C295   1.293       .  A
O273       Zr286   2.443       .  S
O273        C296   1.291       .  A
O274       Zr284   2.458       .  S
O274        C295   1.295       .  A
O275       Zr285   2.437       .  S
O275        C296   1.293       .  A
O276       Zr282   2.465   1_546  S
O276        C291   1.297   1_556  A
O277       Zr283   2.457   1_545  S
O277        C294   1.296   1_556  A
O278       Zr283   2.450       .  S
O278        C293   1.295       .  A
O279       Zr282   2.452       .  S
O279        C292   1.294       .  A
O280       Zr286   2.404       .  S
O280        C289   1.287       .  A
O281       Zr286   2.406       .  S
O281        C290   1.287       .  A
Zr282       O288   2.343   1_564  S
Zr282       O300   2.349   1_554  S
Zr283       O287   2.339       .  S
Zr283       O298   2.346   1_565  S
Zr284       O288   2.335       .  S
Zr284       O298   2.341       .  S
Zr285       O287   2.338       .  S
Zr285       O300   2.343       .  S
Zr286       O287   2.326       .  S
Zr286       O288   2.331   1_565  S
Zr286       O300   2.341       .  S
Zr286       O298   2.338   1_565  S
C289       C1226   1.494       .  S
C290       C1202   1.487       .  S
C291       C1049   1.496       .  S
C292       C1001   1.475       .  S
C293       C1025   1.475       .  S
C294        C977   1.466       .  S
C295       C1073   1.490       .  S
C296       C1106   1.498       .  S
H297        O298   0.966       .  S
H299        O300   0.966       .  S
N301        C305   1.362       .  A
N301        C302   1.360       .  A
N301       C1154   1.447       .  S
C302        C303   1.380       .  A
C302       C1250   1.477       .  S
C303        C304   1.370       .  A
C303        H306   1.082       .  S
C304        C305   1.383       .  A
C304        H307   1.082       .  S
C305        C953   1.484       .  S
N308        C312   1.359       .  A
N308        C309   1.359       .  A
N308       C1130   1.447       .  S
C309        C310   1.382       .  A
C309        C938   1.476       .  S
C310        C311   1.369       .  A
C310        H313   1.082       .  S
C311        C312   1.381       .  A
C311        H314   1.082       .  S
C312       C1274   1.474       .  S
N315        C319   1.355       .  A
N315        C316   1.358       .  A
N315       C1097   1.444       .  S
C316        C317   1.383       .  A
C316        C905   1.472       .  S
C317        C318   1.366       .  A
C317        H320   1.082       .  S
C318        C319   1.379       .  A
C318        H321   1.082       .  S
C319       C1322   1.466       .  S
N322        C326   1.357       .  A
N322        C323   1.355       .  A
N322       C1082   1.444       .  S
C323        C324   1.380       .  A
C323       C1298   1.470       .  S
C324        C325   1.370       .  A
C324        H327   1.082       .  S
C325        C326   1.382       .  A
C325        H328   1.082       .  S
C326        C881   1.471       .  S
O329       Zr365   2.470   1_554  S
O329        C340   1.298       .  A
O330       Zr364   2.448   1_554  S
O330        C341   1.294       .  A
O331       Zr337   2.441   1_455  S
O331        C342   1.292       .  A
O332       Zr337   2.431       .  S
O332        C343   1.290       .  A
O333       Zr367   2.442   1_554  S
O333        C343   1.293       .  A
O334       Zr366   2.457   1_554  S
O334        C342   1.295       .  A
O335       Zr337   2.408       .  S
O335        C341   1.287       .  A
O336       Zr337   2.423       .  S
O336        C340   1.290       .  A
Zr337       O338   2.338       .  S
Zr337       O339   2.329   1_655  S
Zr337       O347   2.340       .  S
Zr337       O345   2.342   1_655  S
O338       Zr364   2.348   1_554  S
O338       Zr367   2.333   1_554  S
O339       Zr365   2.344   1_454  S
O339       Zr366   2.337   1_554  S
C340       C2153   1.491   1_655  S
C341       C1754   1.477       .  S
C342        C833   1.487       .  S
C343        C857   1.481       .  S
H344        O345   0.966       .  S
O345       Zr364   2.348   1_454  S
O345       Zr366   2.335   1_554  S
H346        O347   0.966       .  S
O347       Zr365   2.346   1_554  S
O347       Zr367   2.347   1_554  S
O348       Zr364   2.466   1_455  S
O348        C371   1.297       .  A
O349       Zr365   2.463       .  S
O349        C372   1.297   1_655  A
O350       Zr366   2.420       .  S
O350        C373   1.289       .  A
O351       Zr367   2.424       .  S
O351        C374   1.290       .  A
O352       Zr367   2.415       .  S
O352        C375   1.288       .  A
O353       Zr366   2.417       .  S
O353        C376   1.289       .  A
O354       Zr368   2.436       .  S
O354        C377   1.291       .  A
O355       Zr368   2.446   1_655  S
O355        C378   1.292       .  A
O356       Zr366   2.455       .  S
O356        C377   1.295       .  A
O357       Zr367   2.446       .  S
O357        C378   1.294       .  A
O358       Zr364   2.456   1_455  S
O358        C373   1.296       .  A
O359       Zr365   2.446   1_455  S
O359        C376   1.294       .  A
O360       Zr365   2.455       .  S
O360        C375   1.296       .  A
O361       Zr364   2.448       .  S
O361        C374   1.294       .  A
O362       Zr368   2.410       .  S
O362        C371   1.288       .  A
O363       Zr368   2.412       .  S
O363        C372   1.287       .  A
Zr364       O370   2.336   1_655  S
Zr364       O382   2.351       .  S
Zr365       O369   2.341       .  S
Zr365       O380   2.351   1_655  S
Zr366       O370   2.336       .  S
Zr366       O380   2.344       .  S
Zr367       O369   2.331       .  S
Zr367       O382   2.343       .  S
Zr368       O369   2.328   1_455  S
Zr368       O370   2.333       .  S
Zr368       O382   2.342   1_455  S
Zr368       O380   2.344       .  S
C371       C1850   1.484       .  S
C372       C1802   1.477       .  S
C373        C737   1.478       .  S
C374        C689   1.475       .  S
C375        C722   1.477       .  S
C376        C770   1.472   1_556  S
C377        C818   1.490       .  S
C378        C785   1.488       .  S
H379        O380   0.966       .  S
H381        O382   0.966       .  S
N383        C387   1.360       .  A
N383        C384   1.359       .  A
N383        C866   1.443       .  S
C384        C385   1.379       .  A
C384       C2018   1.478       .  S
C385        C386   1.369       .  A
C385        H388   1.082       .  S
C386        C387   1.382       .  A
C386        H389   1.082       .  S
C387        C674   1.478       .  S
N390        C394   1.361       .  A
N390        C391   1.358       .  A
N390        C842   1.449       .  S
C391        C392   1.378       .  A
C391        C650   1.468       .  S
C392        C393   1.368       .  A
C392        H395   1.082       .  S
C393        C394   1.385       .  A
C393        H396   1.082       .  S
C394       C1994   1.478       .  S
N397        C401   1.358       .  A
N397        C398   1.361       .  A
N397        C809   1.452       .  S
C398        C399   1.382       .  A
C398        C617   1.470       .  S
C399        C400   1.366       .  A
C399        H402   1.082       .  S
C400        C401   1.379       .  A
C400        H403   1.082       .  S
C401       C2042   1.465       .  S
N404        C408   1.360       .  A
N404        C405   1.360       .  A
N404        C794   1.445       .  S
C405        C406   1.380       .  A
C405       C2066   1.479       .  S
C406        C407   1.370       .  A
C406        H409   1.082       .  S
C407        C408   1.383       .  A
C407        H410   1.082       .  S
C408        C593   1.479       .  S
N411        C415   1.353       .  A
N411        C412   1.354   1_556  A
N411        C578   1.438       .  S
C412        C413   1.383       .  A
C412        C761   1.474       .  S
C413        C414   1.373   1_554  A
C413        H416   1.082       .  S
C414        C415   1.380       .  A
C414        H417   1.082       .  S
C415       C1058   1.469       .  S
O418       Zr454   2.464       .  S
O418        C429   1.298       .  A
O419       Zr453   2.465       .  S
O419        C430   1.298       .  A
O420       Zr426   2.439       .  S
O420        C431   1.293       .  A
O421       Zr426   2.442       .  S
O421        C432   1.292       .  A
O422       Zr456   2.437       .  S
O422        C432   1.291       .  A
O423       Zr455   2.439       .  S
O423        C431   1.290       .  A
O424       Zr426   2.421       .  S
O424        C430   1.288       .  A
O425       Zr426   2.422   1_554  S
O425        C429   1.289       .  A
Zr426       O427   2.335       .  S
Zr426       O428   2.329   1_556  S
Zr426       O436   2.343   1_556  S
Zr426       O434   2.349       .  S
O427       Zr453   2.346       .  S
O427       Zr456   2.330       .  S
O428       Zr454   2.338       .  S
O428       Zr455   2.327   1_554  S
C429        C962   1.483       .  S
C430        C890   1.474       .  S
C431        C569   1.495       .  S
C432        C497   1.491   1_556  S
H433        O434   0.967       .  S
O434       Zr453   2.352       .  S
O434       Zr455   2.342       .  S
H435        O436   0.966       .  S
O436       Zr454   2.344       .  S
O436       Zr456   2.338   1_554  S
O437       Zr453   2.465       .  S
O437        C460   1.297       .  A
O438       Zr454   2.458       .  S
O438        C461   1.296       .  A
O439       Zr455   2.406       .  S
O439        C462   1.287       .  A
O440       Zr456   2.410       .  S
O440        C463   1.286       .  A
O441       Zr456   2.400   1_554  S
O441        C464   1.285       .  A
O442       Zr455   2.416   1_554  S
O442        C465   1.289       .  A
O443       Zr457   2.458       .  S
O443        C466   1.296       .  A
O444       Zr457   2.439       .  S
O444        C467   1.293       .  A
O445       Zr455   2.441       .  S
O445        C466   1.291       .  A
O446       Zr456   2.442       .  S
O446        C467   1.292       .  A
O447       Zr453   2.459       .  S
O447        C462   1.296       .  A
O448       Zr454   2.451       .  S
O448        C465   1.294       .  A
O449       Zr454   2.463       .  S
O449        C464   1.297       .  A
O450       Zr453   2.467       .  S
O450        C463   1.298       .  A
O451       Zr457   2.422       .  S
O451        C460   1.290       .  A
O452       Zr457   2.416   1_554  S
O452        C461   1.289       .  A
Zr453       O459   2.353       .  S
Zr453       O471   2.344       .  S
Zr454       O458   2.342       .  S
Zr454       O469   2.350       .  S
Zr455       O459   2.336       .  S
Zr455       O469   2.338   1_556  S
Zr456       O458   2.330   1_556  S
Zr456       O471   2.331       .  S
Zr457       O458   2.335   1_556  S
Zr457       O459   2.336       .  S
Zr457       O471   2.345       .  S
Zr457       O469   2.342   1_556  S
C460        C914   1.473       .  S
C461        C929   1.477       .  S
C462        C626   1.478       .  S
C463        C602   1.481       .  S
C464        C665   1.472       .  S
C465        C641   1.493       .  S
C466        C530   1.501       .  S
C467        C554   1.489       .  S
H468        O469   0.965       .  S
H470        O471   0.966       .  S
N472        C476   1.357       .  A
N472        C473   1.358       .  A
N472        C545   1.443       .  S
C473        C474   1.381       .  A
C473       C1034   1.472       .  S
C474        C475   1.367       .  A
C474        H477   1.082       .  S
C475        C476   1.379       .  A
C475        H478   1.082       .  S
C476        C698   1.470       .  S
N479        C483   1.358   1_554  A
N479        C480   1.357       .  A
N479        C521   1.444       .  S
C480        C481   1.382       .  A
C480       C1010   1.473       .  S
C481        C482   1.368   1_554  A
C481        H484   1.082       .  S
C482        C483   1.382       .  A
C482        H485   1.082       .  S
C483        C746   1.475       .  S
N486        C490   1.357       .  A
N486        C487   1.356       .  A
N486        C506   1.441       .  S
C487        C488   1.382       .  A
C487        C713   1.477       .  S
C488        C489   1.373       .  A
C488        H491   1.082       .  S
C489        C490   1.383       .  A
C489        H492   1.082       .  S
C490        C986   1.477   1_556  S
C493        C494   1.402       .  A
C493        C498   1.400       .  A
C493        H503   1.084       .  S
C494        C495   1.413   1_554  A
C494        C499   1.484   1_554  S
C495        C496   1.402       .  A
C495        S500   1.807       .  S
C496        C497   1.407   1_556  A
C496        H501   1.082       .  S
C497        C498   1.419       .  A
C498        S502   1.805       .  S
C499        C504   1.412       .  A
C499        C508   1.402   1_556  A
S500        H516   1.405       .  S
S502        H513   1.408       .  S
C504        C505   1.405       .  A
C504        S509   1.807       .  S
C505        C506   1.403       .  A
C505        H510   1.082       .  S
C506        C507   1.411   1_556  A
C507        C508   1.400       .  A
C507        S511   1.799       .  S
C508        H512   1.084       .  S
S509        H514   1.407       .  S
S511        H515   1.403       .  S
C517        C518   1.405   1_554  A
C517        C522   1.404       .  A
C517        H527   1.084       .  S
C518        C519   1.412       .  A
C518        C523   1.487       .  S
C519        C520   1.403       .  A
C519        S524   1.804       .  S
C520        C521   1.403   1_556  A
C520        H525   1.083       .  S
C521        C522   1.413       .  A
C522        S526   1.801       .  S
C523        C528   1.409       .  A
C523        C532   1.398   1_556  A
S524        H540   1.405       .  S
S526        H537   1.404       .  S
C528        C529   1.409       .  A
C528        S533   1.806       .  S
C529        C530   1.411       .  A
C529        H534   1.082       .  S
C530        C531   1.424   1_556  A
C531        C532   1.400       .  A
C531        S535   1.800       .  S
C532        H536   1.084       .  S
S533        H538   1.407       .  S
S535        H539   1.408       .  S
C541        C542   1.403       .  A
C541        C546   1.401       .  A
C541        H551   1.084       .  S
C542        C543   1.413   1_556  A
C542        C547   1.479       .  S
C543        C544   1.400       .  A
C543        S548   1.807       .  S
C544        C545   1.403   1_554  A
C544        H549   1.082       .  S
C545        C546   1.414       .  A
C546        S550   1.801       .  S
C547        C552   1.406   1_556  A
C547        C556   1.401       .  A
S548        H564   1.403       .  S
S550        H561   1.405       .  S
C552        C553   1.402       .  A
C552        S557   1.805       .  S
C553        C554   1.409   1_554  A
C553        H558   1.082       .  S
C554        C555   1.420       .  A
C555        C556   1.401       .  A
C555        S559   1.803       .  S
C556        H560   1.084       .  S
S557        H562   1.406       .  S
S559        H563   1.407       .  S
C565        C566   1.402   1_554  A
C565        C570   1.400       .  A
C565        H575   1.084       .  S
C566        C567   1.412       .  A
C566        C571   1.488       .  S
C567        C568   1.400       .  A
C567        S572   1.805       .  S
C568        C569   1.409       .  A
C568        H573   1.083       .  S
C569        C570   1.421   1_556  A
C570        S574   1.801       .  S
C571        C576   1.413   1_556  A
C571        C580   1.404       .  A
S572        H588   1.406       .  S
S574        H585   1.408   1_554  S
C576        C577   1.404       .  A
C576        S581   1.807       .  S
C577        C578   1.401   1_554  A
C577        H582   1.082       .  S
C578        C579   1.411       .  A
C579        C580   1.400       .  A
C579        S583   1.803       .  S
C580        H584   1.084       .  S
S581        H586   1.406       .  S
S583        H587   1.404       .  S
C589        C590   1.399       .  A
C589        C594   1.395       .  A
C589        H599   1.084       .  S
C590        C591   1.414       .  A
C590        C595   1.478       .  S
C591        C592   1.403       .  A
C591        S596   1.807       .  S
C592        C593   1.405       .  A
C592        H597   1.084       .  S
C593        C594   1.415       .  A
C594        S598   1.808       .  S
C595        C600   1.411       .  A
C595        C604   1.397       .  A
S596        H612   1.404       .  S
S598        H609   1.401       .  S
C600        C601   1.405       .  A
C600        S605   1.806       .  S
C601        C602   1.403       .  A
C601        H606   1.083       .  S
C602        C603   1.421       .  A
C603        C604   1.396       .  A
C603        S607   1.804       .  S
C604        H608   1.084       .  S
S605        H610   1.406       .  S
S607        H611   1.403       .  S
C613        C614   1.402       .  A
C613        C618   1.397       .  A
C613        H623   1.084       .  S
C614        C615   1.410       .  A
C614        C619   1.471       .  S
C615        C616   1.394       .  A
C615        S620   1.807       .  S
C616        C617   1.404       .  A
C616        H621   1.084       .  S
C617        C618   1.410       .  A
C618        S622   1.801       .  S
C619        C624   1.405       .  A
C619        C628   1.402       .  A
S620        H636   1.405       .  S
S622        H633   1.406       .  S
C624        C625   1.398       .  A
C624        S629   1.808       .  S
C625        C626   1.409       .  A
C625        H630   1.083       .  S
C626        C627   1.413       .  A
C627        C628   1.398       .  A
C627        S631   1.800       .  S
C628        H632   1.084       .  S
S629        H634   1.407       .  S
S631        H635   1.406       .  S
C637        C638   1.400       .  A
C637        C642   1.397       .  A
C637        H647   1.084       .  S
C638        C639   1.405       .  A
C638        C643   1.473       .  S
C639        C640   1.397       .  A
C639        S644   1.806       .  S
C640        C641   1.414       .  A
C640        H645   1.082       .  S
C641        C642   1.419       .  A
C642        S646   1.800       .  S
C643        C648   1.408       .  A
C643        C652   1.401       .  A
S644        H660   1.406       .  S
S646        H657   1.407       .  S
C648        C649   1.400       .  A
C648        S653   1.806       .  S
C649        C650   1.402       .  A
C649        H654   1.083       .  S
C650        C651   1.409       .  A
C651        C652   1.396       .  A
C651        S655   1.801       .  S
C652        H656   1.084       .  S
S653        H658   1.407       .  S
S655        H659   1.406       .  S
C661        C662   1.404       .  A
C661        C666   1.399       .  A
C661        H671   1.084       .  S
C662        C663   1.410       .  A
C662        C667   1.473       .  S
C663        C664   1.396       .  A
C663        S668   1.808       .  S
C664        C665   1.406       .  A
C664        H669   1.084       .  S
C665        C666   1.410       .  A
C666        S670   1.800       .  S
C667        C672   1.405       .  A
C667        C676   1.402       .  A
S668        H684   1.404       .  S
S670        H681   1.407       .  S
C672        C673   1.397       .  A
C672        S677   1.806       .  S
C673        C674   1.405       .  A
C673        H678   1.083       .  S
C674        C675   1.415       .  A
C675        C676   1.400       .  A
C675        S679   1.802       .  S
C676        H680   1.084       .  S
S677        H682   1.407       .  S
S679        H683   1.405       .  S
C685        C686   1.399   1_554  A
C685        C690   1.396       .  A
C685        H695   1.084       .  S
C686        C687   1.415       .  A
C686        C691   1.477       .  S
C687        C688   1.400       .  A
C687        S692   1.805       .  S
C688        C689   1.403       .  A
C688        H693   1.084       .  S
C689        C690   1.415   1_556  A
C690        S694   1.804       .  S
C691        C696   1.412       .  A
C691        C700   1.399   1_556  A
S692        H708   1.405       .  S
S694        H705   1.407       .  S
C696        C697   1.405       .  A
C696        S701   1.806       .  S
C697        C698   1.402       .  A
C697        H702   1.083       .  S
C698        C699   1.412   1_556  A
C699        C700   1.394       .  A
C699        S703   1.805       .  S
C700        H704   1.084       .  S
S701        H706   1.407       .  S
S703        H707   1.405       .  S
C709        C710   1.400       .  A
C709        C714   1.396       .  A
C709        H719   1.084       .  S
C710        C711   1.412   1_556  A
C710        C715   1.477       .  S
C711        C712   1.401       .  A
C711        S716   1.805       .  S
C712        C713   1.403   1_554  A
C712        H717   1.082       .  S
C713        C714   1.413       .  A
C714        S718   1.803       .  S
C715        C720   1.411   1_556  A
C715        C724   1.397       .  A
S716        H732   1.406       .  S
S718        H729   1.406       .  S
C720        C721   1.402       .  A
C720        S725   1.806       .  S
C721        C722   1.402   1_554  A
C721        H726   1.081       .  S
C722        C723   1.418       .  A
C723        C724   1.395       .  A
C723        S727   1.801       .  S
C724        H728   1.084       .  S
S725        H730   1.407       .  S
S727        H731   1.405       .  S
C733        C734   1.398       .  A
C733        C738   1.394       .  A
C733        H743   1.084       .  S
C734        C735   1.417   1_556  A
C734        C739   1.476       .  S
C735        C736   1.403       .  A
C735        S740   1.808       .  S
C736        C737   1.404   1_554  A
C736        H741   1.084       .  S
C737        C738   1.416       .  A
C738        S742   1.803       .  S
C739        C744   1.410   1_556  A
C739        C748   1.400       .  A
S740        H756   1.402       .  S
S742        H753   1.406       .  S
C744        C745   1.404       .  A
C744        S749   1.804       .  S
C745        C746   1.403   1_554  A
C745        H750   1.082       .  S
C746        C747   1.412       .  A
C747        C748   1.395       .  A
C747        S751   1.804       .  S
C748        H752   1.084       .  S
S749        H754   1.408       .  S
S751        H755   1.407       .  S
C757        C758   1.400       .  A
C757        C762   1.395       .  A
C757        H767   1.084       .  S
C758        C759   1.413   1_554  A
C758        C763   1.475       .  S
C759        C760   1.400       .  A
C759        S764   1.804       .  S
C760        C761   1.402   1_556  A
C760        H765   1.083       .  S
C761        C762   1.412       .  A
C762        S766   1.804       .  S
C763        C768   1.411   1_554  A
C763        C772   1.399       .  A
S764        H780   1.405       .  S
S766        H777   1.407       .  S
C768        C769   1.402       .  A
C768        S773   1.806       .  S
C769        C770   1.402   1_556  A
C769        H774   1.083       .  S
C770        C771   1.415       .  A
C771        C772   1.396       .  A
C771        S775   1.805       .  S
C772        H776   1.084       .  S
S773        H778   1.407       .  S
S775        H779   1.408       .  S
C781        C782   1.401       .  A
C781        C786   1.401       .  A
C781        H791   1.084       .  S
C782        C783   1.410       .  A
C782        C787   1.482       .  S
C783        C784   1.402       .  A
C783        S788   1.801       .  S
C784        C785   1.407       .  A
C784        H789   1.084       .  S
C785        C786   1.419       .  A
C786        S790   1.803       .  S
C787        C792   1.408       .  A
C787        C796   1.400       .  A
S788        H804   1.407       .  S
S790        H801   1.405       .  S
C792        C793   1.404       .  A
C792        S797   1.805       .  S
C793        C794   1.405       .  A
C793        H798   1.082       .  S
C794        C795   1.416       .  A
C795        C796   1.399       .  A
C795        S799   1.799       .  S
C796        H800   1.084       .  S
S797        H802   1.407       .  S
S799        H803   1.401       .  S
C805        C806   1.403       .  A
C805        C810   1.403       .  A
C805        H815   1.084       .  S
C806        C807   1.416       .  A
C806        C811   1.491       .  S
C807        C808   1.407       .  A
C807        S812   1.808       .  S
C808        C809   1.408       .  A
C808        H813   1.082       .  S
C809        C810   1.416       .  A
C810        S814   1.803       .  S
C811        C816   1.411       .  A
C811        C820   1.402       .  A
S812        H828   1.401       .  S
S814        H825   1.403       .  S
C816        C817   1.409       .  A
C816        S821   1.804       .  S
C817        C818   1.406       .  A
C817        H822   1.083       .  S
C818        C819   1.418       .  A
C819        C820   1.402       .  A
C819        S823   1.803       .  S
C820        H824   1.084       .  S
S821        H826   1.407       .  S
S823        H827   1.406       .  S
C829        C830   1.403       .  A
C829        C834   1.403       .  A
C829        H839   1.084       .  S
C830        C831   1.413       .  A
C830        C835   1.489       .  S
C831        C832   1.404       .  A
C831        S836   1.803       .  S
C832        C833   1.407       .  A
C832        H837   1.084       .  S
C833        C834   1.416       .  A
C834        S838   1.804       .  S
C835        C840   1.410       .  A
C835        C844   1.402       .  A
S836        H852   1.406       .  S
S838        H849   1.407       .  S
C840        C841   1.406       .  A
C840        S845   1.806       .  S
C841        C842   1.406       .  A
C841        H846   1.081       .  S
C842        C843   1.416       .  A
C843        C844   1.403       .  A
C843        S847   1.800       .  S
C844        H848   1.084       .  S
S845        H850   1.407       .  S
S847        H851   1.400       .  S
C853        C854   1.399       .  A
C853        C858   1.397       .  A
C853        H863   1.084       .  S
C854        C855   1.412       .  A
C854        C859   1.477       .  S
C855        C856   1.401       .  A
C855        S860   1.806       .  S
C856        C857   1.406       .  A
C856        H861   1.084       .  S
C857        C858   1.417       .  A
C858        S862   1.804       .  S
C859        C864   1.406       .  A
C859        C868   1.401       .  A
S860        H876   1.404       .  S
S862        H873   1.407       .  S
C864        C865   1.402       .  A
C864        S869   1.805       .  S
C865        C866   1.405       .  A
C865        H870   1.082       .  S
C866        C867   1.417       .  A
C867        C868   1.400       .  A
C867        S871   1.803       .  S
C868        H872   1.084       .  S
S869        H874   1.407       .  S
S871        H875   1.402       .  S
C877        C878   1.405       .  A
C877        C882   1.402       .  A
C877        H887   1.084       .  S
C878        C879   1.410       .  A
C878        C883   1.476       .  S
C879        C880   1.393       .  A
C879        S884   1.805       .  S
C880        C881   1.402       .  A
C880        H885   1.085       .  S
C881        C882   1.412       .  A
C882        S886   1.804       .  S
C883        C888   1.410       .  A
C883        C892   1.400       .  A
S884        H900   1.404       .  S
S886        H897   1.404       .  S
C888        C889   1.401       .  A
C888        S893   1.807       .  S
C889        C890   1.400       .  A
C889        H894   1.080       .  S
C890        C891   1.417       .  A
C891        C892   1.399       .  A
C891        S895   1.802       .  S
C892        H896   1.084       .  S
S893        H898   1.407       .  S
S895        H899   1.403       .  S
C901        C902   1.399       .  A
C901        C906   1.392       .  A
C901        H911   1.084       .  S
C902        C903   1.412       .  A
C902        C907   1.473       .  S
C903        C904   1.400       .  A
C903        S908   1.805       .  S
C904        C905   1.404       .  A
C904        H909   1.083       .  S
C905        C906   1.414       .  A
C906        S910   1.807       .  S
C907        C912   1.411       .  A
C907        C916   1.397       .  A
S908        H924   1.405       .  S
S910        H921   1.405       .  S
C912        C913   1.405       .  A
C912        S917   1.806       .  S
C913        C914   1.403       .  A
C913        H918   1.083       .  S
C914        C915   1.414       .  A
C915        C916   1.393       .  A
C915        S919   1.801       .  S
C916        H920   1.084       .  S
S917        H922   1.407       .  S
S919        H923   1.406       .  S
C925        C926   1.405       .  A
C925        C930   1.401       .  A
C925        H935   1.084       .  S
C926        C927   1.410       .  A
C926        C931   1.479       .  S
C927        C928   1.396       .  A
C927        S932   1.804       .  S
C928        C929   1.407       .  A
C928        H933   1.084       .  S
C929        C930   1.413       .  A
C930        S934   1.803       .  S
C931        C936   1.411       .  A
C931        C940   1.400       .  A
S932        H948   1.405       .  S
S934        H945   1.407       .  S
C936        C937   1.404       .  A
C936        S941   1.806       .  S
C937        C938   1.402       .  A
C937        H942   1.082       .  S
C938        C939   1.414       .  A
C939        C940   1.395       .  A
C939        S943   1.804       .  S
C940        H944   1.084       .  S
S941        H946   1.407       .  S
S943        H947   1.406       .  S
C949        C950   1.404       .  A
C949        C954   1.402       .  A
C949        H959   1.084       .  S
C950        C951   1.411       .  A
C950        C955   1.480       .  S
C951        C952   1.399       .  A
C951        S956   1.809       .  S
C952        C953   1.406       .  A
C952        H957   1.084       .  S
C953        C954   1.412       .  A
C954        S958   1.799       .  S
C955        C960   1.410       .  A
C955        C964   1.400       .  A
S956        H972   1.403       .  S
S958        H969   1.405       .  S
C960        C961   1.402       .  A
C960        S965   1.806       .  S
C961        C962   1.401       .  A
C961        H966   1.080       .  S
C962        C963   1.420       .  A
C963        C964   1.402       .  A
C963        S967   1.803       .  S
C964        H968   1.084       .  S
S965        H970   1.407       .  S
S967        H971   1.407       .  S
C973        C974   1.400       .  A
C973        C978   1.396       .  A
C973        H983   1.084       .  S
C974        C975   1.416   1_554  A
C974        C979   1.476       .  S
C975        C976   1.398       .  A
C975        S980   1.804       .  S
C976        C977   1.399   1_556  A
C976        H981   1.084       .  S
C977        C978   1.413       .  A
C978        S982   1.801       .  S
C979        C984   1.409   1_554  A
C979        C988   1.399       .  A
S980        H996   1.405       .  S
S982        H993   1.407       .  S
C984        C985   1.404       .  A
C984        S989   1.805       .  S
C985        C986   1.404   1_556  A
C985        H990   1.082       .  S
C986        C987   1.415       .  A
C987        C988   1.395       .  A
C987        S991   1.805       .  S
C988        H992   1.084       .  S
S989        H994   1.407       .  S
S991        H995   1.402       .  S
C997        C998   1.399       .  A
C997       C1002   1.396       .  A
C997       H1007   1.084       .  S
C998        C999   1.416   1_554  A
C998       C1003   1.478       .  S
C999       C1000   1.402       .  A
C999       S1004   1.806       .  S
C1000      C1001   1.403   1_556  A
C1000      H1005   1.084       .  S
C1001      C1002   1.414       .  A
C1002      S1006   1.802       .  S
C1003      C1008   1.411   1_554  A
C1003      C1012   1.399       .  A
S1004      H1020   1.405       .  S
S1006      H1017   1.407       .  S
C1008      C1009   1.404       .  A
C1008      S1013   1.806       .  S
C1009      C1010   1.403   1_556  A
C1009      H1014   1.082       .  S
C1010      C1011   1.415       .  A
C1011      C1012   1.394       .  A
C1011      S1015   1.807       .  S
C1012      H1016   1.084       .  S
S1013      H1018   1.407       .  S
S1015      H1019   1.403       .  S
C1021      C1022   1.404       .  A
C1021      C1026   1.399   1_556  A
C1021      H1031   1.084   1_556  S
C1022      C1023   1.409       .  A
C1022      C1027   1.472       .  S
C1023      C1024   1.395       .  A
C1023      S1028   1.807       .  S
C1024      C1025   1.407       .  A
C1024      H1029   1.084       .  S
C1025      C1026   1.412   1_556  A
C1026      S1030   1.803       .  S
C1027      C1032   1.405       .  A
C1027      C1036   1.402   1_556  A
S1028      H1044   1.404       .  S
S1030      H1041   1.408       .  S
C1032      C1033   1.397       .  A
C1032      S1037   1.806       .  S
C1033      C1034   1.404       .  A
C1033      H1038   1.083       .  S
C1034      C1035   1.414   1_556  A
C1035      C1036   1.399       .  A
C1035      S1039   1.803       .  S
C1036      H1040   1.084       .  S
S1037      H1042   1.407       .  S
S1039      H1043   1.404       .  S
C1045      C1046   1.402   1_554  A
C1045      C1050   1.400       .  A
C1045      H1055   1.084       .  S
C1046      C1047   1.404       .  A
C1046      C1051   1.475       .  S
C1047      C1048   1.396       .  A
C1047      S1052   1.806       .  S
C1048      C1049   1.415   1_556  A
C1048      H1053   1.083       .  S
C1049      C1050   1.418       .  A
C1050      S1054   1.801       .  S
C1051      C1056   1.407       .  A
C1051      C1060   1.401   1_556  A
S1052      H1068   1.405       .  S
S1054      H1065   1.408       .  S
C1056      C1057   1.399       .  A
C1056      S1061   1.806       .  S
C1057      C1058   1.401       .  A
C1057      H1062   1.083       .  S
C1058      C1059   1.414   1_556  A
C1059      C1060   1.399       .  A
C1059      S1063   1.806       .  S
C1060      H1064   1.084       .  S
S1061      H1066   1.407       .  S
S1063      H1067   1.404       .  S
C1069      C1070   1.404       .  A
C1069      C1074   1.403       .  A
C1069      H1079   1.084       .  S
C1070      C1071   1.412       .  A
C1070      C1075   1.488       .  S
C1071      C1072   1.403       .  A
C1071      S1076   1.803       .  S
C1072      C1073   1.407       .  A
C1072      H1077   1.084       .  S
C1073      C1074   1.416       .  A
C1074      S1078   1.799       .  S
C1075      C1080   1.409       .  A
C1075      C1084   1.405       .  A
S1076      H1092   1.406       .  S
S1078      H1089   1.407       .  S
C1080      C1081   1.401       .  A
C1080      S1085   1.806       .  S
C1081      C1082   1.403       .  A
C1081      H1086   1.080       .  S
C1082      C1083   1.414       .  A
C1083      C1084   1.406       .  A
C1083      S1087   1.801       .  S
C1084      H1088   1.084       .  S
S1085      H1090   1.407       .  S
S1087      H1091   1.405       .  S
C1093      C1094   1.403       .  A
C1093      C1098   1.404       .  A
C1093      H1103   1.083       .  S
C1094      C1095   1.414       .  A
C1094      C1099   1.488       .  S
C1095      C1096   1.401       .  A
C1095      S1100   1.803       .  S
C1096      C1097   1.403       .  A
C1096      H1101   1.083       .  S
C1097      C1098   1.411       .  A
C1098      S1102   1.803       .  S
C1099      C1104   1.409       .  A
C1099      C1108   1.401       .  A
S1100      H1116   1.407       .  S
S1102      H1113   1.407       .  S
C1104      C1105   1.404       .  A
C1104      S1109   1.808       .  S
C1105      C1106   1.411       .  A
C1105      H1110   1.082       .  S
C1106      C1107   1.423       .  A
C1107      C1108   1.400       .  A
C1107      S1111   1.801       .  S
C1108      H1112   1.084       .  S
S1109      H1114   1.407       .  S
S1111      H1115   1.407       .  S
C1117      C1118   1.399       .  A
C1117      C1122   1.403       .  A
C1117      H1127   1.084       .  S
C1118      C1119   1.412       .  A
C1118      C1123   1.490       .  S
C1119      C1120   1.405       .  A
C1119      S1124   1.804       .  S
C1120      C1121   1.412       .  A
C1120      H1125   1.083       .  S
C1121      C1122   1.423       .  A
C1122      S1126   1.795       .  S
C1123      C1128   1.410       .  A
C1123      C1132   1.403       .  A
S1124      H1140   1.405       .  S
S1126      H1137   1.407       .  S
C1128      C1129   1.407       .  A
C1128      S1133   1.805       .  S
C1129      C1130   1.404       .  A
C1129      H1134   1.082       .  S
C1130      C1131   1.415       .  A
C1131      C1132   1.405       .  A
C1131      S1135   1.801       .  S
C1132      H1136   1.084       .  S
S1133      H1138   1.407       .  S
S1135      H1139   1.405       .  S
C1141      C1142   1.399       .  A
C1141      C1146   1.402       .  A
C1141      H1151   1.084       .  S
C1142      C1143   1.411       .  A
C1142      C1147   1.485       .  S
C1143      C1144   1.402       .  A
C1143      S1148   1.805       .  S
C1144      C1145   1.411       .  A
C1144      H1149   1.083       .  S
C1145      C1146   1.422       .  A
C1146      S1150   1.799       .  S
C1147      C1152   1.409       .  A
C1147      C1156   1.400       .  A
S1148      H1164   1.405       .  S
S1150      H1161   1.408       .  S
C1152      C1153   1.406       .  A
C1152      S1157   1.805       .  S
C1153      C1154   1.405       .  A
C1153      H1158   1.082       .  S
C1154      C1155   1.419       .  A
C1155      C1156   1.400       .  A
C1155      S1159   1.804       .  S
C1156      H1160   1.084       .  S
S1157      H1162   1.407       .  S
S1159      H1163   1.401       .  S
C1165      C1166   1.400       .  A
C1165      C1170   1.403   1_545  A
C1165      H1175   1.082   1_545  S
C1166      C1167   1.415       .  A
C1166      C1171   1.491       .  S
C1167      C1168   1.400       .  A
C1167      S1172   1.804       .  S
C1168      C1169   1.407   1_545  A
C1168      H1173   1.083       .  S
C1169      C1170   1.425       .  A
C1170      S1174   1.812       .  S
C1171      C1176   1.415   1_545  A
C1171      C1180   1.403       .  A
S1172      H1188   1.407       .  S
S1174      H1185   1.406       .  S
C1176      C1177   1.405       .  A
C1176      S1181   1.807       .  S
C1177      C1178   1.402   1_565  A
C1177      H1182   1.082       .  S
C1178      C1179   1.415       .  A
C1179      C1180   1.399       .  A
C1179      S1183   1.805       .  S
C1180      H1184   1.084       .  S
S1181      H1186   1.407       .  S
S1183      H1187   1.403       .  S
C1189      C1190   1.402   1_565  A
C1189      C1194   1.401       .  A
C1189      H1199   1.084       .  S
C1190      C1191   1.407       .  A
C1190      C1195   1.474   1_545  S
C1191      C1192   1.394       .  A
C1191      S1196   1.805       .  S
C1192      C1193   1.405   1_545  A
C1192      H1197   1.084       .  S
C1193      C1194   1.415       .  A
C1194      S1198   1.800       .  S
C1195      C1200   1.403   1_565  A
C1195      C1204   1.402       .  A
S1196      H1212   1.406       .  S
S1198      H1209   1.406       .  S
C1200      C1201   1.401       .  A
C1200      S1205   1.807       .  S
C1201      C1202   1.413   1_545  A
C1201      H1206   1.083       .  S
C1202      C1203   1.415       .  A
C1203      C1204   1.399       .  A
C1203      S1207   1.802       .  S
C1204      H1208   1.084       .  S
S1205      H1210   1.406       .  S
S1207      H1211   1.408       .  S
C1213      C1214   1.402   1_545  A
C1213      C1218   1.399       .  A
C1213      H1223   1.084       .  S
C1214      C1215   1.410       .  A
C1214      C1219   1.475       .  S
C1215      C1216   1.396       .  A
C1215      S1220   1.805       .  S
C1216      C1217   1.403   1_565  A
C1216      H1221   1.084       .  S
C1217      C1218   1.411       .  A
C1218      S1222   1.797       .  S
C1219      C1224   1.400       .  A
C1219      C1228   1.403   1_565  A
S1220      H1236   1.405       .  S
S1222      H1233   1.407       .  S
C1224      C1225   1.397       .  A
C1224      S1229   1.808       .  S
C1225      C1226   1.415       .  A
C1225      H1230   1.080       .  S
C1226      C1227   1.418   1_565  A
C1227      C1228   1.402       .  A
C1227      S1231   1.801       .  S
C1228      H1232   1.084       .  S
S1229      H1234   1.406       .  S
S1231      H1235   1.408       .  S
C1237      C1238   1.400       .  A
C1237      C1242   1.397       .  A
C1237      H1247   1.084       .  S
C1238      C1239   1.413       .  A
C1238      C1243   1.478       .  S
C1239      C1240   1.399       .  A
C1239      S1244   1.803       .  S
C1240      C1241   1.404       .  A
C1240      H1245   1.084       .  S
C1241      C1242   1.416       .  A
C1242      S1246   1.801       .  S
C1243      C1248   1.409       .  A
C1243      C1252   1.402       .  A
S1244      H1260   1.407       .  S
S1246      H1257   1.406       .  S
C1248      C1249   1.398       .  A
C1248      S1253   1.809       .  S
C1249      C1250   1.404       .  A
C1249      H1254   1.083       .  S
C1250      C1251   1.414       .  A
C1251      C1252   1.400       .  A
C1251      S1255   1.804       .  S
C1252      H1256   1.084       .  S
S1253      H1258   1.406       .  S
S1255      H1259   1.404       .  S
C1261      C1262   1.401       .  A
C1261      C1266   1.399       .  A
C1261      H1271   1.084       .  S
C1262      C1263   1.415       .  A
C1262      C1267   1.484       .  S
C1263      C1264   1.404       .  A
C1263      S1268   1.806       .  S
C1264      C1265   1.404       .  A
C1264      H1269   1.084       .  S
C1265      C1266   1.415       .  A
C1266      S1270   1.801       .  S
C1267      C1272   1.410       .  A
C1267      C1276   1.405       .  A
S1268      H1284   1.405       .  S
S1270      H1281   1.407       .  S
C1272      C1273   1.400       .  A
C1272      S1277   1.806       .  S
C1273      C1274   1.402       .  A
C1273      H1278   1.083       .  S
C1274      C1275   1.411       .  A
C1275      C1276   1.402       .  A
C1275      S1279   1.803       .  S
C1276      H1280   1.084       .  S
S1277      H1282   1.407       .  S
S1279      H1283   1.406       .  S
C1285      C1286   1.402       .  A
C1285      C1290   1.398       .  A
C1285      H1295   1.084       .  S
C1286      C1287   1.408       .  A
C1286      C1291   1.478       .  S
C1287      C1288   1.397       .  A
C1287      S1292   1.804       .  S
C1288      C1289   1.412       .  A
C1288      H1293   1.084       .  S
C1289      C1290   1.415       .  A
C1290      S1294   1.799       .  S
C1291      C1296   1.410       .  A
C1291      C1300   1.401       .  A
S1292      H1308   1.406       .  S
S1294      H1305   1.407       .  S
C1296      C1297   1.404       .  A
C1296      S1301   1.807       .  S
C1297      C1298   1.403       .  A
C1297      H1302   1.083       .  S
C1298      C1299   1.411       .  A
C1299      C1300   1.395       .  A
C1299      S1303   1.807       .  S
C1300      H1304   1.084       .  S
S1301      H1306   1.407       .  S
S1303      H1307   1.403       .  S
C1309      C1310   1.404       .  A
C1309      C1314   1.398       .  A
C1309      H1319   1.084       .  S
C1310      C1311   1.407       .  A
C1310      C1315   1.472       .  S
C1311      C1312   1.395       .  A
C1311      S1316   1.804       .  S
C1312      C1313   1.407       .  A
C1312      H1317   1.084       .  S
C1313      C1314   1.413       .  A
C1314      S1318   1.805       .  S
C1315      C1320   1.407       .  A
C1315      C1324   1.402       .  A
S1316      H1332   1.406       .  S
S1318      H1329   1.405       .  S
C1320      C1321   1.398       .  A
C1320      S1325   1.807       .  S
C1321      C1322   1.402       .  A
C1321      H1326   1.083       .  S
C1322      C1323   1.411       .  A
C1323      C1324   1.397       .  A
C1323      S1327   1.803       .  S
C1324      H1328   1.084       .  S
S1325      H1330   1.407       .  S
S1327      H1331   1.404       .  S
C1333      C1334   1.402       .  A
C1333      C1338   1.401       .  A
C1333      H1343   1.084       .  S
C1334      C1335   1.411   1_545  A
C1334      C1339   1.485       .  S
C1335      C1336   1.401       .  A
C1335      S1340   1.803       .  S
C1336      C1337   1.407   1_565  A
C1336      H1341   1.081       .  S
C1337      C1338   1.418       .  A
C1338      S1342   1.803       .  S
C1339      C1344   1.412   1_545  A
C1339      C1348   1.402       .  A
S1340      H1356   1.407       .  S
S1342      H1353   1.409       .  S
C1344      C1345   1.406       .  A
C1344      S1349   1.806       .  S
C1345      C1346   1.403   1_565  A
C1345      H1350   1.082       .  S
C1346      C1347   1.411       .  A
C1347      C1348   1.398       .  A
C1347      S1351   1.800       .  S
C1348      H1352   1.084       .  S
S1349      H1354   1.407       .  S
S1351      H1355   1.405       .  S
C1357      C1358   1.402   1_545  A
C1357      C1362   1.404       .  A
C1357      H1367   1.084       .  S
C1358      C1359   1.413       .  A
C1358      C1363   1.489       .  S
C1359      C1360   1.404       .  A
C1359      S1364   1.804       .  S
C1360      C1361   1.408       .  A
C1360      H1365   1.084       .  S
C1361      C1362   1.420   1_565  A
C1362      S1366   1.803       .  S
C1363      C1368   1.410       .  A
C1363      C1372   1.405   1_565  A
S1364      H1380   1.407       .  S
S1366      H1377   1.406       .  S
C1368      C1369   1.405       .  A
C1368      S1373   1.806       .  S
C1369      C1370   1.405       .  A
C1369      H1374   1.082       .  S
C1370      C1371   1.413   1_565  A
C1371      C1372   1.405       .  A
C1371      S1375   1.801       .  S
C1372      H1376   1.084       .  S
S1373      H1378   1.406       .  S
S1375      H1379   1.407       .  S
C1381      C1382   1.404       .  A
C1381      C1386   1.404       .  A
C1381      H1391   1.084       .  S
C1382      C1383   1.412   1_545  A
C1382      C1387   1.486       .  S
C1383      C1384   1.401       .  A
C1383      S1388   1.804       .  S
C1384      C1385   1.405   1_565  A
C1384      H1389   1.084       .  S
C1385      C1386   1.419       .  A
C1386      S1390   1.804       .  S
C1387      C1392   1.410   1_545  A
C1387      C1396   1.400       .  A
S1388      H1404   1.405       .  S
S1390      H1401   1.407       .  S
C1392      C1393   1.408       .  A
C1392      S1397   1.806       .  S
C1393      C1394   1.407   1_565  A
C1393      H1398   1.082       .  S
C1394      C1395   1.416       .  A
C1395      C1396   1.400       .  A
C1395      S1399   1.799       .  S
C1396      H1400   1.084       .  S
S1397      H1402   1.407       .  S
S1399      H1403   1.400       .  S
C1405      C1406   1.402       .  A
C1405      C1410   1.399       .  A
C1405      H1415   1.084   1_565  S
C1406      C1407   1.411       .  A
C1406      C1411   1.478       .  S
C1407      C1408   1.398       .  A
C1407      S1412   1.805       .  S
C1408      C1409   1.404       .  A
C1408      H1413   1.084       .  S
C1409      C1410   1.414       .  A
C1410      S1414   1.798   1_565  S
C1411      C1416   1.402       .  A
C1411      C1420   1.403       .  A
S1412      H1428   1.405       .  S
S1414      H1425   1.403       .  S
C1416      C1417   1.398       .  A
C1416      S1421   1.808       .  S
C1417      C1418   1.413       .  A
C1417      H1422   1.079       .  S
C1418      C1419   1.419       .  A
C1419      C1420   1.403       .  A
C1419      S1423   1.801   1_565  S
C1420      H1424   1.084       .  S
S1421      H1426   1.406       .  S
S1423      H1427   1.409       .  S
C1429      C1430   1.401       .  A
C1429      C1434   1.400       .  A
C1429      H1439   1.084       .  S
C1430      C1431   1.412       .  A
C1430      C1435   1.482       .  S
C1431      C1432   1.402       .  A
C1431      S1436   1.807       .  S
C1432      C1433   1.409       .  A
C1432      H1437   1.082       .  S
C1433      C1434   1.421       .  A
C1434      S1438   1.804       .  S
C1435      C1440   1.409       .  A
C1435      C1444   1.401       .  A
S1436      H1452   1.403   1_565  S
S1438      H1449   1.408       .  S
C1440      C1441   1.405       .  A
C1440      S1445   1.806   1_565  S
C1441      C1442   1.405       .  A
C1441      H1446   1.081   1_565  S
C1442      C1443   1.415       .  A
C1443      C1444   1.401       .  A
C1443      S1447   1.801       .  S
C1444      H1448   1.084       .  S
S1445      H1450   1.407       .  S
S1447      H1451   1.406       .  S
C1453      C1454   1.403       .  A
C1453      C1458   1.401       .  A
C1453      H1463   1.084       .  S
C1454      C1455   1.411       .  A
C1454      C1459   1.477       .  S
C1455      C1456   1.399       .  A
C1455      S1460   1.807       .  S
C1456      C1457   1.405       .  A
C1456      H1461   1.084       .  S
C1457      C1458   1.411       .  A
C1458      S1462   1.801       .  S
C1459      C1464   1.406       .  A
C1459      C1468   1.402       .  A
S1460      H1476   1.404       .  S
S1462      H1473   1.404       .  S
C1464      C1465   1.402       .  A
C1464      S1469   1.806       .  S
C1465      C1466   1.408       .  A
C1465      H1470   1.083       .  S
C1466      C1467   1.415       .  A
C1467      C1468   1.398       .  A
C1467      S1471   1.803       .  S
C1468      H1472   1.084       .  S
S1469      H1474   1.407       .  S
S1471      H1475   1.407       .  S
C1477      C1478   1.400       .  A
C1477      C1482   1.397       .  A
C1477      H1487   1.084       .  S
C1478      C1479   1.417       .  A
C1478      C1483   1.480       .  S
C1479      C1480   1.401       .  A
C1479      S1484   1.806       .  S
C1480      C1481   1.401       .  A
C1480      H1485   1.084       .  S
C1481      C1482   1.416       .  A
C1482      S1486   1.806       .  S
C1483      C1488   1.412       .  A
C1483      C1492   1.401       .  A
S1484      H1500   1.404       .  S
S1486      H1497   1.405       .  S
C1488      C1489   1.405       .  A
C1488      S1493   1.806       .  S
C1489      C1490   1.402       .  A
C1489      H1494   1.083       .  S
C1490      C1491   1.411       .  A
C1491      C1492   1.396       .  A
C1491      S1495   1.805       .  S
C1492      H1496   1.084       .  S
S1493      H1498   1.407       .  S
S1495      H1499   1.406       .  S
C1501      C1502   1.402       .  A
C1501      C1506   1.399       .  A
C1501      H1511   1.084       .  S
C1502      C1503   1.412       .  A
C1502      C1507   1.476       .  S
C1503      C1504   1.394       .  A
C1503      S1508   1.805       .  S
C1504      C1505   1.402       .  A
C1504      H1509   1.084       .  S
C1505      C1506   1.415       .  A
C1506      S1510   1.803       .  S
C1507      C1512   1.407       .  A
C1507      C1516   1.404       .  A
S1508      H1524   1.404       .  S
S1510      H1521   1.405       .  S
C1512      C1513   1.399       .  A
C1512      S1517   1.806       .  S
C1513      C1514   1.406       .  A
C1513      H1518   1.083       .  S
C1514      C1515   1.411       .  A
C1515      C1516   1.399       .  A
C1515      S1519   1.805       .  S
C1516      H1520   1.084       .  S
S1517      H1522   1.407       .  S
S1519      H1523   1.407       .  S
C1525      C1526   1.400       .  A
C1525      C1530   1.396       .  A
C1525      H1535   1.084       .  S
C1526      C1527   1.415       .  A
C1526      C1531   1.478       .  S
C1527      C1528   1.403       .  A
C1527      S1532   1.806       .  S
C1528      C1529   1.402       .  A
C1528      H1533   1.084       .  S
C1529      C1530   1.412       .  A
C1530      S1534   1.803       .  S
C1531      C1536   1.410       .  A
C1531      C1540   1.399       .  A
S1532      H1548   1.404       .  S
S1534      H1545   1.407       .  S
C1536      C1537   1.405       .  A
C1536      S1541   1.807       .  S
C1537      C1538   1.405       .  A
C1537      H1542   1.083       .  S
C1538      C1539   1.417       .  A
C1539      C1540   1.398       .  A
C1539      S1543   1.804       .  S
C1540      H1544   1.084       .  S
S1541      H1546   1.406       .  S
S1543      H1547   1.407       .  S
C1549      C1550   1.398       .  A
C1549      C1554   1.393       .  A
C1549      H1559   1.084       .  S
C1550      C1551   1.414   1_565  A
C1550      C1555   1.473       .  S
C1551      C1552   1.400       .  A
C1551      S1556   1.805       .  S
C1552      C1553   1.402   1_545  A
C1552      H1557   1.084       .  S
C1553      C1554   1.416       .  A
C1554      S1558   1.805       .  S
C1555      C1560   1.410   1_565  A
C1555      C1564   1.399       .  A
S1556      H1572   1.406       .  S
S1558      H1569   1.406       .  S
C1560      C1561   1.401       .  A
C1560      S1565   1.806       .  S
C1561      C1562   1.401   1_545  A
C1561      H1566   1.083       .  S
C1562      C1563   1.411       .  A
C1563      C1564   1.392       .  A
C1563      S1567   1.803       .  S
C1564      H1568   1.084       .  S
S1565      H1570   1.407       .  S
S1567      H1571   1.407       .  S
C1573      C1574   1.398       .  A
C1573      C1578   1.394       .  A
C1573      H1583   1.084       .  S
C1574      C1575   1.412   1_545  A
C1574      C1579   1.475       .  S
C1575      C1576   1.402       .  A
C1575      S1580   1.803       .  S
C1576      C1577   1.404   1_565  A
C1576      H1581   1.083       .  S
C1577      C1578   1.417       .  A
C1578      S1582   1.807       .  S
C1579      C1584   1.410   1_545  A
C1579      C1588   1.398       .  A
S1580      H1596   1.405       .  S
S1582      H1593   1.401       .  S
C1584      C1585   1.404       .  A
C1584      S1589   1.805       .  S
C1585      C1586   1.403   1_565  A
C1585      H1590   1.083       .  S
C1586      C1587   1.417       .  A
C1587      C1588   1.396       .  A
C1587      S1591   1.804       .  S
C1588      H1592   1.084       .  S
S1589      H1594   1.407       .  S
S1591      H1595   1.407       .  S
C1597      C1598   1.401   1_565  A
C1597      C1602   1.398       .  A
C1597      H1607   1.084       .  S
C1598      C1599   1.415       .  A
C1598      C1603   1.484   1_545  S
C1599      C1600   1.404       .  A
C1599      S1604   1.805       .  S
C1600      C1601   1.403       .  A
C1600      H1605   1.083       .  S
C1601      C1602   1.412   1_545  A
C1602      S1606   1.804       .  S
C1603      C1608   1.412   1_565  A
C1603      C1612   1.402       .  A
S1604      H1620   1.406       .  S
S1606      H1617   1.406       .  S
C1608      C1609   1.403       .  A
C1608      S1613   1.806       .  S
C1609      C1610   1.402   1_545  A
C1609      H1614   1.083       .  S
C1610      C1611   1.415       .  A
C1611      C1612   1.404       .  A
C1611      S1615   1.809       .  S
C1612      H1616   1.083       .  S
S1613      H1618   1.406       .  S
S1615      H1619   1.407       .  S
C1621      C1622   1.398   1_545  A
C1621      C1626   1.392       .  A
C1621      H1631   1.084       .  S
C1622      C1623   1.414       .  A
C1622      C1627   1.477       .  S
C1623      C1624   1.403       .  A
C1623      S1628   1.804       .  S
C1624      C1625   1.402       .  A
C1624      H1629   1.084       .  S
C1625      C1626   1.412   1_565  A
C1626      S1630   1.803       .  S
C1627      C1632   1.411       .  A
C1627      C1636   1.398   1_565  A
S1628      H1644   1.406       .  S
S1630      H1641   1.401       .  S
C1632      C1633   1.404       .  A
C1632      S1637   1.807       .  S
C1633      C1634   1.405       .  A
C1633      H1638   1.083       .  S
C1634      C1635   1.417   1_565  A
C1635      C1636   1.397       .  A
C1635      S1639   1.802       .  S
C1636      H1640   1.084       .  S
S1637      H1642   1.407       .  S
S1639      H1643   1.407       .  S
C1645      C1646   1.403       .  A
C1645      C1650   1.403       .  A
C1645      H1655   1.084       .  S
C1646      C1647   1.412       .  A
C1646      C1651   1.487       .  S
C1647      C1648   1.400       .  A
C1647      S1652   1.801       .  S
C1648      C1649   1.404       .  A
C1648      H1653   1.083       .  S
C1649      C1650   1.417       .  A
C1650      S1654   1.800       .  S
C1651      C1656   1.410       .  A
C1651      C1660   1.402       .  A
S1652      H1668   1.406       .  S
S1654      H1665   1.402       .  S
C1656      C1657   1.408       .  A
C1656      S1661   1.806       .  S
C1657      C1658   1.407       .  A
C1657      H1662   1.083       .  S
C1658      C1659   1.417       .  A
C1659      C1660   1.402       .  A
C1659      S1663   1.804       .  S
C1660      H1664   1.084       .  S
S1661      H1666   1.407       .  S
S1663      H1667   1.407       .  S
C1669      C1670   1.403       .  A
C1669      C1674   1.402       .  A
C1669      H1679   1.084       .  S
C1670      C1671   1.415       .  A
C1670      C1675   1.488       .  S
C1671      C1672   1.404       .  A
C1671      S1676   1.806       .  S
C1672      C1673   1.404       .  A
C1672      H1677   1.083       .  S
C1673      C1674   1.413       .  A
C1674      S1678   1.798       .  S
C1675      C1680   1.409       .  A
C1675      C1684   1.401       .  A
S1676      H1692   1.405       .  S
S1678      H1689   1.405       .  S
C1680      C1681   1.407       .  A
C1680      S1685   1.806       .  S
C1681      C1682   1.409       .  A
C1681      H1686   1.080       .  S
C1682      C1683   1.421       .  A
C1683      C1684   1.402       .  A
C1683      S1687   1.802       .  S
C1684      H1688   1.084       .  S
S1685      H1690   1.407       .  S
S1687      H1691   1.407       .  S
C1693      C1694   1.407       .  A
C1693      C1698   1.404       .  A
C1693      H1703   1.084       .  S
C1694      C1695   1.415       .  A
C1694      C1699   1.496       .  S
C1695      C1696   1.402       .  A
C1695      S1700   1.802       .  S
C1696      C1697   1.402       .  A
C1696      H1701   1.083       .  S
C1697      C1698   1.415       .  A
C1698      S1702   1.805       .  S
C1699      C1704   1.411       .  A
C1699      C1708   1.403       .  A
S1700      H1716   1.406       .  S
S1702      H1713   1.402       .  S
C1704      C1705   1.407       .  A
C1704      S1709   1.808       .  S
C1705      C1706   1.412       .  A
C1705      H1710   1.081       .  S
C1706      C1707   1.422       .  A
C1707      C1708   1.404       .  A
C1707      S1711   1.802       .  S
C1708      H1712   1.084       .  S
S1709      H1714   1.407       .  S
S1711      H1715   1.408       .  S
C1717      C1718   1.403       .  A
C1717      C1722   1.406       .  A
C1717      H1727   1.084       .  S
C1718      C1719   1.413       .  A
C1718      C1723   1.495       .  S
C1719      C1720   1.407       .  A
C1719      S1724   1.803       .  S
C1720      C1721   1.409       .  A
C1720      H1725   1.082       .  S
C1721      C1722   1.424       .  A
C1722      S1726   1.803       .  S
C1723      C1728   1.415       .  A
C1723      C1732   1.403       .  A
S1724      H1740   1.407       .  S
S1726      H1737   1.407       .  S
C1728      C1729   1.411       .  A
C1728      S1733   1.805       .  S
C1729      C1730   1.403       .  A
C1729      H1734   1.082       .  S
C1730      C1731   1.411       .  A
C1731      C1732   1.401       .  A
C1731      S1735   1.799       .  S
C1732      H1736   1.084       .  S
S1733      H1738   1.407       .  S
S1735      H1739   1.406       .  S
C1741      C1742   1.404       .  A
C1741      C1746   1.404       .  A
C1741      H1751   1.084       .  S
C1742      C1743   1.407   1_655  A
C1742      C1747   1.475       .  S
C1743      C1744   1.392       .  A
C1743      S1748   1.804       .  S
C1744      C1745   1.404   1_455  A
C1744      H1749   1.084       .  S
C1745      C1746   1.416       .  A
C1746      S1750   1.803       .  S
C1747      C1752   1.404   1_655  A
C1747      C1756   1.403       .  A
S1748      H1764   1.406       .  S
S1750      H1761   1.404       .  S
C1752      C1753   1.398       .  A
C1752      S1757   1.806       .  S
C1753      C1754   1.409   1_455  A
C1753      H1758   1.083       .  S
C1754      C1755   1.412       .  A
C1755      C1756   1.401       .  A
C1755      S1759   1.807       .  S
C1756      H1760   1.083       .  S
S1757      H1762   1.407       .  S
S1759      H1763   1.407       .  S
C1765      C1766   1.404   1_455  A
C1765      C1770   1.403       .  A
C1765      H1775   1.083       .  S
C1766      C1767   1.412       .  A
C1766      C1771   1.479       .  S
C1767      C1768   1.398       .  A
C1767      S1772   1.806       .  S
C1768      C1769   1.404       .  A
C1768      H1773   1.084       .  S
C1769      C1770   1.410   1_655  A
C1770      S1774   1.803       .  S
C1771      C1776   1.409       .  A
C1771      C1780   1.404   1_655  A
S1772      H1788   1.407       .  S
S1774      H1785   1.407       .  S
C1776      C1777   1.400       .  A
C1776      S1781   1.807       .  S
C1777      C1778   1.407       .  A
C1777      H1782   1.083       .  S
C1778      C1779   1.410   1_655  A
C1779      C1780   1.397       .  A
C1779      S1783   1.804       .  S
C1780      H1784   1.084       .  S
S1781      H1786   1.408       .  S
S1783      H1787   1.407       .  S
C1789      C1790   1.399   1_455  A
C1789      C1794   1.396       .  A
C1789      H1799   1.084       .  S
C1790      C1791   1.413       .  A
C1790      C1795   1.478       .  S
C1791      C1792   1.403       .  A
C1791      S1796   1.804       .  S
C1792      C1793   1.402       .  A
C1792      H1797   1.083       .  S
C1793      C1794   1.413   1_655  A
C1794      S1798   1.803       .  S
C1795      C1800   1.410       .  A
C1795      C1804   1.399   1_655  A
S1796      H1812   1.405       .  S
S1798      H1809   1.407       .  S
C1800      C1801   1.403       .  A
C1800      S1805   1.807       .  S
C1801      C1802   1.403   1_655  A
C1801      H1806   1.083       .  S
C1802      C1803   1.416       .  A
C1803      C1804   1.402       .  A
C1803      S1807   1.809       .  S
C1804      H1808   1.083       .  S
S1805      H1810   1.407       .  S
S1807      H1811   1.407       .  S
C1813      C1814   1.403       .  A
C1813      C1818   1.399       .  A
C1813      H1823   1.084       .  S
C1814      C1815   1.414   1_655  A
C1814      C1819   1.483       .  S
C1815      C1816   1.398   1_455  A
C1815      S1820   1.804       .  S
C1816      C1817   1.402       .  A
C1816      H1821   1.084   1_655  S
C1817      C1818   1.415       .  A
C1818      S1822   1.807       .  S
C1819      C1824   1.411       .  A
C1819      C1828   1.399       .  A
S1820      H1836   1.406       .  S
S1822      H1833   1.400       .  S
C1824      C1825   1.403       .  A
C1824      S1829   1.807       .  S
C1825      C1826   1.409       .  A
C1825      H1830   1.082       .  S
C1826      C1827   1.423   1_655  A
C1827      C1828   1.397   1_455  A
C1827      S1831   1.803       .  S
C1828      H1832   1.084       .  S
S1829      H1834   1.407       .  S
S1831      H1835   1.407       .  S
C1837      C1838   1.405       .  A
C1837      C1842   1.403       .  A
C1837      H1847   1.084       .  S
C1838      C1839   1.408       .  A
C1838      C1843   1.481       .  S
C1839      C1840   1.395       .  A
C1839      S1844   1.803   1_455  S
C1840      C1841   1.405       .  A
C1840      H1845   1.084       .  S
C1841      C1842   1.413       .  A
C1842      S1846   1.805       .  S
C1843      C1848   1.405   1_455  A
C1843      C1852   1.404       .  A
S1844      H1860   1.406       .  S
S1846      H1857   1.402       .  S
C1848      C1849   1.402       .  A
C1848      S1853   1.807       .  S
C1849      C1850   1.409   1_655  A
C1849      H1854   1.083       .  S
C1850      C1851   1.415       .  A
C1851      C1852   1.401       .  A
C1851      S1855   1.804       .  S
C1852      H1856   1.084       .  S
S1853      H1858   1.406       .  S
S1855      H1859   1.406       .  S
C1861      C1862   1.405       .  A
C1861      C1866   1.402       .  A
C1861      H1871   1.083       .  S
C1862      C1863   1.413       .  A
C1862      C1867   1.483       .  S
C1863      C1864   1.398       .  A
C1863      S1868   1.804   1_455  S
C1864      C1865   1.401       .  A
C1864      H1869   1.084   1_455  S
C1865      C1866   1.408       .  A
C1866      S1870   1.805       .  S
C1867      C1872   1.413       .  A
C1867      C1876   1.401   1_455  A
S1868      H1884   1.407       .  S
S1870      H1881   1.407       .  S
C1872      C1873   1.404       .  A
C1872      S1877   1.808       .  S
C1873      C1874   1.403       .  A
C1873      H1878   1.083       .  S
C1874      C1875   1.413   1_455  A
C1875      C1876   1.396       .  A
C1875      S1879   1.801       .  S
C1876      H1880   1.084       .  S
S1877      H1882   1.406       .  S
S1879      H1883   1.406       .  S
C1885      C1886   1.400       .  A
C1885      C1890   1.397       .  A
C1885      H1895   1.084       .  S
C1886      C1887   1.418       .  A
C1886      C1891   1.486       .  S
C1887      C1888   1.405       .  A
C1887      S1892   1.805       .  S
C1888      C1889   1.403       .  A
C1888      H1893   1.084       .  S
C1889      C1890   1.416       .  A
C1890      S1894   1.801       .  S
C1891      C1896   1.410       .  A
C1891      C1900   1.401       .  A
S1892      H1908   1.404       .  S
S1894      H1905   1.406       .  S
C1896      C1897   1.407       .  A
C1896      S1901   1.804       .  S
C1897      C1898   1.406       .  A
C1897      H1902   1.082       .  S
C1898      C1899   1.417       .  A
C1899      C1900   1.397       .  A
C1899      S1903   1.807       .  S
C1900      H1904   1.084       .  S
S1901      H1906   1.407       .  S
S1903      H1907   1.402       .  S
C1909      C1910   1.402       .  A
C1909      C1914   1.397       .  A
C1909      H1919   1.084       .  S
C1910      C1911   1.409       .  A
C1910      C1915   1.470       .  S
C1911      C1912   1.397       .  A
C1911      S1916   1.807       .  S
C1912      C1913   1.408       .  A
C1912      H1917   1.084       .  S
C1913      C1914   1.413       .  A
C1914      S1918   1.804       .  S
C1915      C1920   1.406       .  A
C1915      C1924   1.401       .  A
S1916      H1932   1.404       .  S
S1918      H1929   1.407       .  S
C1920      C1921   1.399       .  A
C1920      S1925   1.807       .  S
C1921      C1922   1.403       .  A
C1921      H1926   1.083       .  S
C1922      C1923   1.409       .  A
C1923      C1924   1.397       .  A
C1923      S1927   1.798       .  S
C1924      H1928   1.084       .  S
S1925      H1930   1.407       .  S
S1927      H1931   1.406       .  S
C1933      C1934   1.404       .  A
C1933      C1938   1.400       .  A
C1933      H1943   1.084       .  S
C1934      C1935   1.417       .  A
C1934      C1939   1.493       .  S
C1935      C1936   1.402       .  A
C1935      S1940   1.804       .  S
C1936      C1937   1.402       .  A
C1936      H1941   1.084       .  S
C1937      C1938   1.415       .  A
C1938      S1942   1.807       .  S
C1939      C1944   1.415       .  A
C1939      C1948   1.401       .  A
S1940      H1956   1.406       .  S
S1942      H1953   1.400       .  S
C1944      C1945   1.405       .  A
C1944      S1949   1.808       .  S
C1945      C1946   1.405       .  A
C1945      H1950   1.082       .  S
C1946      C1947   1.423       .  A
C1947      C1948   1.402       .  A
C1947      S1951   1.812       .  S
C1948      H1952   1.083       .  S
S1949      H1954   1.407       .  S
S1951      H1955   1.407       .  S
C1957      C1958   1.399       .  A
C1957      C1962   1.400       .  A
C1957      H1967   1.083       .  S
C1958      C1959   1.415       .  A
C1958      C1963   1.480       .  S
C1959      C1960   1.401       .  A
C1959      S1964   1.804       .  S
C1960      C1961   1.402       .  A
C1960      H1965   1.084       .  S
C1961      C1962   1.415       .  A
C1962      S1966   1.806       .  S
C1963      C1968   1.410       .  A
C1963      C1972   1.399       .  A
S1964      H1980   1.405       .  S
S1966      H1977   1.407       .  S
C1968      C1969   1.405       .  A
C1968      S1973   1.805       .  S
C1969      C1970   1.403       .  A
C1969      H1974   1.083       .  S
C1970      C1971   1.416       .  A
C1971      C1972   1.395       .  A
C1971      S1975   1.807       .  S
C1972      H1976   1.084       .  S
S1973      H1978   1.407       .  S
S1975      H1979   1.402       .  S
C1981      C1982   1.399       .  A
C1981      C1986   1.397       .  A
C1981      H1991   1.084       .  S
C1982      C1983   1.415       .  A
C1982      C1987   1.476       .  S
C1983      C1984   1.402       .  A
C1983      S1988   1.807       .  S
C1984      C1985   1.403       .  A
C1984      H1989   1.084       .  S
C1985      C1986   1.417       .  A
C1986      S1990   1.805       .  S
C1987      C1992   1.409       .  A
C1987      C1996   1.398       .  A
S1988      H2004   1.402       .  S
S1990      H2001   1.407       .  S
C1992      C1993   1.405       .  A
C1992      S1997   1.805       .  S
C1993      C1994   1.404       .  A
C1993      H1998   1.082       .  S
C1994      C1995   1.417       .  A
C1995      C1996   1.395       .  A
C1995      S1999   1.808       .  S
C1996      H2000   1.084       .  S
S1997      H2002   1.407       .  S
S1999      H2003   1.403       .  S
C2005      C2006   1.404       .  A
C2005      C2010   1.402       .  A
C2005      H2015   1.084       .  S
C2006      C2007   1.410       .  A
C2006      C2011   1.481       .  S
C2007      C2008   1.397       .  A
C2007      S2012   1.805       .  S
C2008      C2009   1.408       .  A
C2008      H2013   1.084       .  S
C2009      C2010   1.415       .  A
C2010      S2014   1.803       .  S
C2011      C2016   1.409       .  A
C2011      C2020   1.403       .  A
S2012      H2028   1.405       .  S
S2014      H2025   1.407       .  S
C2016      C2017   1.402       .  A
C2016      S2021   1.807       .  S
C2017      C2018   1.404       .  A
C2017      H2022   1.083       .  S
C2018      C2019   1.411       .  A
C2019      C2020   1.400       .  A
C2019      S2023   1.800       .  S
C2020      H2024   1.084       .  S
S2021      H2026   1.406       .  S
S2023      H2027   1.406       .  S
C2029      C2030   1.401       .  A
C2029      C2034   1.398       .  A
C2029      H2039   1.084       .  S
C2030      C2031   1.405       .  A
C2030      C2035   1.468       .  S
C2031      C2032   1.394       .  A
C2031      S2036   1.806       .  S
C2032      C2033   1.410       .  A
C2032      H2037   1.078       .  S
C2033      C2034   1.416       .  A
C2034      S2038   1.800       .  S
C2035      C2040   1.407       .  A
C2035      C2044   1.400       .  A
S2036      H2052   1.406       .  S
S2038      H2049   1.407       .  S
C2040      C2041   1.399       .  A
C2040      S2045   1.807       .  S
C2041      C2042   1.402       .  A
C2041      H2046   1.083       .  S
C2042      C2043   1.409       .  A
C2043      C2044   1.395       .  A
C2043      S2047   1.799       .  S
C2044      H2048   1.084       .  S
S2045      H2050   1.406       .  S
S2047      H2051   1.403       .  S
C2053      C2054   1.404       .  A
C2053      C2058   1.402       .  A
C2053      H2063   1.084       .  S
C2054      C2055   1.410       .  A
C2054      C2059   1.482       .  S
C2055      C2056   1.401       .  A
C2055      S2060   1.806       .  S
C2056      C2057   1.410       .  A
C2056      H2061   1.084       .  S
C2057      C2058   1.415       .  A
C2058      S2062   1.803       .  S
C2059      C2064   1.409       .  A
C2059      C2068   1.404       .  A
S2060      H2076   1.405       .  S
S2062      H2073   1.406       .  S
C2064      C2065   1.402       .  A
C2064      S2069   1.806       .  S
C2065      C2066   1.404       .  A
C2065      H2070   1.083       .  S
C2066      C2067   1.411       .  A
C2067      C2068   1.401       .  A
C2067      S2071   1.800       .  S
C2068      H2072   1.084       .  S
S2069      H2074   1.407       .  S
S2071      H2075   1.406       .  S
C2077      C2078   1.403   1_455  A
C2077      C2082   1.407       .  A
C2077      H2087   1.083       .  S
C2078      C2079   1.413       .  A
C2078      C2083   1.486       .  S
C2079      C2080   1.403       .  A
C2079      S2084   1.807       .  S
C2080      C2081   1.407       .  A
C2080      H2085   1.084       .  S
C2081      C2082   1.417   1_655  A
C2082      S2086   1.808       .  S
C2083      C2088   1.408       .  A
C2083      C2092   1.403   1_655  A
S2084      H2100   1.403       .  S
S2086      H2097   1.407       .  S
C2088      C2089   1.403       .  A
C2088      S2093   1.805       .  S
C2089      C2090   1.405       .  A
C2089      H2094   1.082       .  S
C2090      C2091   1.418   1_655  A
C2091      C2092   1.404       .  A
C2091      S2095   1.803       .  S
C2092      H2096   1.084       .  S
S2093      H2098   1.407       .  S
S2095      H2099   1.404       .  S
C2101      C2102   1.403       .  A
C2101      C2106   1.400       .  A
C2101      H2111   1.084       .  S
C2102      C2103   1.417   1_655  A
C2102      C2107   1.494       .  S
C2103      C2104   1.407       .  A
C2103      S2108   1.803       .  S
C2104      C2105   1.403   1_455  A
C2104      H2109   1.083       .  S
C2105      C2106   1.412       .  A
C2106      S2110   1.800       .  S
C2107      C2112   1.412       .  A
C2107      C2116   1.401   1_655  A
S2108      H2124   1.407       .  S
S2110      H2121   1.404       .  S
C2112      C2113   1.408       .  A
C2112      S2117   1.806       .  S
C2113      C2114   1.409       .  A
C2113      H2118   1.082       .  S
C2114      C2115   1.420   1_655  A
C2115      C2116   1.402       .  A
C2115      S2119   1.797       .  S
C2116      H2120   1.084       .  S
S2117      H2122   1.407       .  S
S2119      H2123   1.408       .  S
C2125      C2126   1.405   1_655  A
C2125      C2130   1.405   1_655  A
C2125      H2135   1.084       .  S
C2126      C2127   1.413       .  A
C2126      C2131   1.488       .  S
C2127      C2128   1.398       .  A
C2127      S2132   1.806       .  S
C2128      C2129   1.404       .  A
C2128      H2133   1.082       .  S
C2129      C2130   1.413       .  A
C2130      S2134   1.800   1_455  S
C2131      C2136   1.412       .  A
C2131      C2140   1.405   1_455  A
S2132      H2148   1.405       .  S
S2134      H2145   1.405       .  S
C2136      C2137   1.403       .  A
C2136      S2141   1.808       .  S
C2137      C2138   1.405   1_455  A
C2137      H2142   1.083       .  S
C2138      C2139   1.414       .  A
C2139      C2140   1.404       .  A
C2139      S2143   1.804       .  S
C2140      H2144   1.084       .  S
S2141      H2146   1.407       .  S
S2143      H2147   1.407       .  S
C2149      C2150   1.405   1_655  A
C2149      C2154   1.405       .  A
C2149      H2159   1.084       .  S
C2150      C2151   1.410       .  A
C2150      C2155   1.488       .  S
C2151      C2152   1.401       .  A
C2151      S2156   1.804       .  S
C2152      C2153   1.409       .  A
C2152      H2157   1.084       .  S
C2153      C2154   1.416   1_455  A
C2154      S2158   1.801       .  S
C2155      C2160   1.411   1_455  A
C2155      C2164   1.401       .  A
S2156      H2172   1.406       .  S
S2158      H2169   1.408       .  S
C2160      C2161   1.408       .  A
C2160      S2165   1.805       .  S
C2161      C2162   1.404   1_655  A
C2161      H2166   1.083       .  S
C2162      C2163   1.415       .  A
C2163      C2164   1.400       .  A
C2163      S2167   1.804       .  S
C2164      H2168   1.084       .  S
S2165      H2170   1.407       .  S
S2167      H2171   1.405       .  S
C2173      C2174   1.405       .  A
C2173      C2178   1.407       .  A
C2173      H2183   1.084       .  S
C2174      C2175   1.410   1_455  A
C2174      C2179   1.482       .  S
C2175      C2176   1.398       .  A
C2175      S2180   1.810       .  S
C2176      C2177   1.407   1_655  A
C2176      H2181   1.084       .  S
C2177      C2178   1.416       .  A
C2178      S2182   1.801       .  S
C2179      C2184   1.411       .  A
C2179      C2188   1.399   1_455  A
S2180      H2196   1.402       .  S
S2182      H2193   1.404       .  S
C2184      C2185   1.405       .  A
C2184      S2189   1.805       .  S
C2185      C2186   1.406   1_455  A
C2185      H2190   1.083       .  S
C2186      C2187   1.418       .  A
C2187      C2188   1.399       .  A
C2187      S2191   1.804       .  S
C2188      H2192   1.084       .  S
S2189      H2194   1.407       .  S
S2191      H2195   1.407       .  S
C2197      C2198   1.405   1_655  A
C2197      C2202   1.403       .  A
C2197      H2207   1.084       .  S
C2198      C2199   1.413       .  A
C2198      C2203   1.487       .  S
C2199      C2200   1.399       .  A
C2199      S2204   1.804       .  S
C2200      C2201   1.404       .  A
C2200      H2205   1.083       .  S
C2201      C2202   1.412   1_455  A
C2202      S2206   1.802       .  S
C2203      C2208   1.410   1_455  A
C2203      C2212   1.403       .  A
S2204      H2220   1.406       .  S
S2206      H2217   1.405       .  S
C2208      C2209   1.406       .  A
C2208      S2213   1.806       .  S
C2209      C2210   1.406   1_655  A
C2209      H2214   1.083       .  S
C2210      C2211   1.417       .  A
C2211      C2212   1.402       .  A
C2211      S2215   1.802       .  S
C2212      H2216   1.084       .  S
S2213      H2218   1.406       .  S
S2215      H2219   1.407       .  S
