geometry optimzed in LAMMPS
_audit_creation_date              2020-11-30 
_audit_creation_method            'lammps2cif' 
_symmetry_space_group_name_H-M    'P1' 
_symmetry_Int_Tables_number       1 
_symmetry_cell_setting            triclinic 
loop_ 
_symmetry_equiv_pos_as_xyz 
  x,y,z 
_cell_length_a                    46.91463758 
_cell_length_b                    46.80896299771547 
_cell_length_c                    64.96942757451664 
_cell_angle_alpha                 90.01087117346316 
_cell_angle_beta                  90.03709520622853 
_cell_angle_gamma                 89.77169174630443 
loop_ 
_atom_site_label 
_atom_site_type_symbol 
_atom_site_fract_x 
_atom_site_fract_y 
_atom_site_fract_z 
_atom_site_charge 
N1          N  0.99555112  0.66559618  0.96919028    -0.27100
N2          N  0.98005498  0.64576119  0.95997179    -0.35000
C3          C  0.97819599  0.65177653  0.93980088     0.01200
C4          C  0.99367151  0.67619726  0.93595629     0.07300
C5          C  0.00449198  0.68444711  0.95487853    -0.05800
H6          H  0.96671152  0.63902982  0.92867386     0.07900
H7          H  0.01706236  0.70324745  0.95811395     0.09100
Cu8        Cu  0.96339836  0.60994286  0.97427799     0.44200
Cu9        Cu  0.00161586  0.66719929  0.00110995     0.42000
Cu10       Cu  0.96795296  0.60837232  0.02859536     0.43900
N11         N  0.95462236  0.57356818  0.99126130    -0.34500
N12         N  0.95630427  0.57309307  0.01154097    -0.28700
C13         C  0.95320355  0.54608636  0.01816560    -0.04800
C14         C  0.94958808  0.52865231  0.00118164     0.07400
C15         C  0.95046295  0.54680357  0.98436760     0.01200
H16         H  0.95543694  0.53944131  0.03403377     0.08800
H17         H  0.95004510  0.54080635  0.96828960     0.07900
N18         N  0.98480430  0.64400546  0.04275962    -0.35900
N19         N  0.99841698  0.66486764  0.03321409    -0.28100
C20         C  0.00658976  0.68433862  0.04734951    -0.03400
C21         C  0.99719657  0.67531558  0.06648792     0.05300
C22         C  0.98345768  0.64981313  0.06296091     0.03300
H23         H  0.01710853  0.70426994  0.04382263     0.08500
H24         H  0.97284790  0.63658181  0.07423357     0.07300
N25         N  0.67156581  0.00812184  0.03241787    -0.27100
N26         N  0.64885480  0.01877374  0.04179828    -0.35000
C27         C  0.65430978  0.02126928  0.06198617     0.01200
C28         C  0.68154126  0.01136154  0.06560426     0.07300
C29         C  0.69197444  0.00307004  0.04660106    -0.05800
H30         H  0.63964613  0.03011615  0.07316807     0.07900
H31         H  0.71326340  0.99548900  0.04317595     0.09100
Cu32       Cu  0.61134590  0.03057533  0.02741169     0.44200
Cu33       Cu  0.67487908  0.00505109  0.00051116     0.42000
Cu34       Cu  0.61350124  0.03648962  0.97347873     0.43900
N35         N  0.57537480  0.03911334  0.01011379    -0.34500
N36         N  0.57603735  0.04122033  0.98986694    -0.28700
C37         C  0.54923064  0.04407036  0.98274739    -0.04800
C38         C  0.53087992  0.04376558  0.99941882     0.07400
C39         C  0.54820288  0.04069819  0.01652273     0.01200
H40         H  0.54349914  0.04505161  0.96663052     0.08800
H41         H  0.54151716  0.03837205  0.03236338     0.07900
N42         N  0.65162936  0.02526085  0.95968090    -0.35900
N43         N  0.67319476  0.01210890  0.96886352    -0.28100
C44         C  0.69344740  0.00638344  0.95469973    -0.03400
C45         C  0.68417530  0.01691186  0.93594777     0.05300
C46         C  0.65778055  0.02881572  0.93969910     0.03300
H47         H  0.71368157  0.99616110  0.95793745     0.08500
H48         H  0.64376570  0.03889751  0.92861071     0.07300
N49         N  0.85903708  0.51633313  0.46997828    -0.27100
N50         N  0.87928858  0.50252641  0.45982576    -0.35000
C51         C  0.87157997  0.49972451  0.44006061     0.01200
C52         C  0.84544876  0.51272334  0.43741749     0.07300
C53         C  0.83801066  0.52320180  0.45663786    -0.05800
H54         H  0.88403119  0.48872580  0.42847569     0.07900
H55         H  0.81822905  0.53363450  0.46082029     0.09100
Cu56       Cu  0.91658279  0.48707827  0.47252284     0.44200
Cu57       Cu  0.85972669  0.52105277  0.50197788     0.42000
Cu58       Cu  0.91741268  0.47954312  0.52632533     0.43900
N59         N  0.95268360  0.47452538  0.48826275    -0.34500
N60         N  0.95295519  0.47129407  0.50843592    -0.28700
C61         C  0.97986114  0.46629186  0.51464266    -0.04800
C62         C  0.99733934  0.46653195  0.49747794     0.07400
C63         C  0.97936210  0.47168698  0.48100136     0.01200
H64         H  0.98641941  0.46459367  0.53056332     0.08800
H65         H  0.98540553  0.47498582  0.46511565     0.07900
N66         N  0.88303769  0.49703241  0.54187225    -0.35900
N67         N  0.86333427  0.51384354  0.53363543    -0.28100
C68         C  0.84545975  0.52259853  0.54865033    -0.03400
C69         C  0.85417216  0.51024373  0.56698107     0.05300
C70         C  0.87790441  0.49415734  0.56208246     0.03300
H71         H  0.82683647  0.53588905  0.54624127     0.08500
H72         H  0.89068768  0.48138728  0.57248937     0.07300
N73         N  0.50408497  0.85657756  0.53286341    -0.27100
N74         N  0.49332407  0.87908974  0.54249174    -0.35000
C75         C  0.49107179  0.87329651  0.56265171     0.01200
C76         C  0.50130123  0.84606139  0.56604998     0.07300
C77         C  0.50952850  0.83599911  0.54689459    -0.05800
H78         H  0.48228272  0.88779172  0.57398926     0.07900
H79         H  0.51737267  0.81482182  0.54327808     0.09100
Cu80       Cu  0.48127524  0.91694072  0.52853221     0.44200
Cu81       Cu  0.50684879  0.85383338  0.50079412     0.42000
Cu82       Cu  0.47567215  0.91604442  0.47452553     0.43900
N83         N  0.47189971  0.95324381  0.51171841    -0.34500
N84         N  0.46976380  0.95296958  0.49146597    -0.28700
C85         C  0.46563044  0.97982952  0.48470269    -0.04800
C86         C  0.46518450  0.99783788  0.50160137     0.07400
C87         C  0.46916360  0.98024862  0.51847906     0.01200
H88         H  0.46424908  0.98587682  0.46866154     0.08800
H89         H  0.47109558  0.98667646  0.53441155     0.07900
N90         N  0.48661886  0.87814357  0.46016474    -0.35900
N91         N  0.49959924  0.85621746  0.46906631    -0.28100
C92         C  0.50506827  0.83622875  0.45460270    -0.03400
C93         C  0.49449931  0.84601901  0.43596982     0.05300
C94         C  0.48289809  0.87248275  0.44009923     0.03300
H95         H  0.51525319  0.81585316  0.45753000     0.08500
H96         H  0.47299673  0.88691832  0.42920139     0.07300
N97         N  0.50443519  0.16934262  0.53161128    -0.27100
N98         N  0.49162768  0.14820237  0.54141957    -0.35000
C99         C  0.48882659  0.15504833  0.56137399     0.01200
C100        C  0.50082667  0.18152885  0.56447049     0.07300
C101        C  0.51070690  0.19003303  0.54534375    -0.05800
H102        H  0.47865532  0.14171136  0.57279198     0.07900
H103        H  0.52035673  0.21029856  0.54151337     0.09100
Cu104      Cu  0.47814838  0.11062420  0.52796410     0.44200
Cu105      Cu  0.50867219  0.17037170  0.49957078     0.42000
Cu106      Cu  0.47201437  0.11082190  0.47401341     0.43900
N107        N  0.46881992  0.07413736  0.51146557    -0.34500
N108        N  0.46629867  0.07417739  0.49123570    -0.28700
C109        C  0.46330586  0.04712877  0.48460635    -0.04800
C110        C  0.46409200  0.02924351  0.50156293     0.07400
C111        C  0.46749562  0.04710546  0.51834248     0.01200
H112        H  0.46231463  0.04088048  0.46859078     0.08800
H113        H  0.47041445  0.04085770  0.53423686     0.07900
N114        N  0.48598796  0.14729707  0.45925218    -0.35900
N115        N  0.50108821  0.16792618  0.46788256    -0.28100
C116        C  0.50793225  0.18719047  0.45326557    -0.03400
C117        C  0.49608316  0.17836525  0.43480107     0.05300
C118        C  0.48231066  0.15313854  0.43920105     0.03300
H119        H  0.51968603  0.20665730  0.45602717     0.08500
H120        H  0.47070593  0.13975264  0.42854097     0.07300
N121        N  0.16770855  0.51246019  0.46802396    -0.27100
N122        N  0.14663543  0.50005193  0.45786547    -0.35000
C123        C  0.15340406  0.49849642  0.43781811     0.01200
C124        C  0.17971670  0.51093008  0.43499402     0.07300
C125        C  0.18825670  0.51966106  0.45443155    -0.05800
H126        H  0.14021199  0.48868425  0.42614313     0.07900
H127        H  0.20848423  0.52911673  0.45853169     0.09100
Cu128      Cu  0.10925812  0.48509190  0.47092709     0.44200
Cu129      Cu  0.16871368  0.51541936  0.50024922     0.42000
Cu130      Cu  0.10929394  0.47821918  0.52491202     0.43900
N131        N  0.07316696  0.47359595  0.48725122    -0.34500
N132        N  0.07337523  0.47070611  0.50745566    -0.28700
C133        C  0.04664444  0.46621365  0.51409977    -0.04800
C134        C  0.02868914  0.46639630  0.49721259     0.07400
C135        C  0.04623158  0.47102099  0.48041366     0.01200
H136        H  0.04056469  0.46480946  0.53012491     0.08800
H137        H  0.03973705  0.47402718  0.46457877     0.07900
N138        N  0.14433188  0.49377283  0.54044071    -0.35900
N139        N  0.16514340  0.50886020  0.53209285    -0.28100
C140        C  0.18314728  0.51704381  0.54719867    -0.03400
C141        C  0.17323621  0.50614249  0.56569694     0.05300
C142        C  0.14874345  0.49148014  0.56077750     0.03300
H143        H  0.20238945  0.52926257  0.54482224     0.08500
H144        H  0.13480328  0.48029784  0.57128095     0.07300
N145        N  0.72907243  0.05900965  0.81285754    -0.27100
N146        N  0.72043421  0.07202862  0.82973896    -0.35000
C147        C  0.71901695  0.10027049  0.82638688     0.01200
C148        C  0.72708350  0.10575116  0.80620280     0.07300
C149        C  0.73330825  0.07879522  0.79814932    -0.05800
H150        H  0.71324604  0.11535580  0.83822943     0.07900
H151        H  0.74074089  0.07375882  0.78282755     0.09100
Cu152      Cu  0.71267038  0.05121041  0.85703280     0.44200
Cu153      Cu  0.73535754  0.01493266  0.81174724     0.42000
Cu154      Cu  0.73049042  0.97702158  0.86170924     0.43900
N155        N  0.70926325  0.02878320  0.88413877    -0.34500
N156        N  0.71713507  0.00184911  0.88651407    -0.28700
C157        C  0.71129477  0.99376965  0.90598734    -0.04800
C158        C  0.69883500  0.01674183  0.91603621     0.07400
C159        C  0.69778571  0.03842796  0.90171160     0.01200
H160        H  0.71381601  0.97227461  0.91184792     0.08800
H161        H  0.68836541  0.05939314  0.90366221     0.07900
N162        N  0.73696753  0.95725975  0.83333725    -0.35900
N163        N  0.73867439  0.97079479  0.81549375    -0.28100
C164        C  0.74146356  0.95138931  0.80033492    -0.03400
C165        C  0.74147464  0.92425986  0.80894308     0.05300
C166        C  0.73850231  0.92893894  0.82991416     0.03300
H167        H  0.74233946  0.95677176  0.78416836     0.08500
H168        H  0.73727278  0.91292283  0.84187680     0.07300
O169        O  0.77910141  0.28018830  0.77586261    -0.72800
O170        O  0.70398142  0.27381872  0.74665142    -0.73700
O171        O  0.73465022  0.23865819  0.77479685    -0.62400
O172        O  0.74844036  0.31477265  0.74789277    -0.70800
O173        O  0.77081675  0.29284364  0.72229372    -0.70300
O174        O  0.75527670  0.21695804  0.74840471    -0.61600
O175        O  0.72542726  0.25283918  0.72029166    -0.74100
O176        O  0.80039972  0.25733634  0.75020830    -0.72900
Cu177      Cu  0.74074958  0.27753771  0.76222700     1.04600
Cu178      Cu  0.76365193  0.25417802  0.73440852     1.04300
C179        C  0.80174134  0.27027918  0.76750291     0.93400
C180        C  0.70279199  0.26267920  0.72871548     0.92600
C181        C  0.74272880  0.21568150  0.76582091     0.84700
C182        C  0.76236036  0.31583523  0.73100846     0.91000
O183        O  0.72567521  0.78009107  0.72142816    -0.72800
O184        O  0.80212673  0.77028689  0.74933112    -0.73700
O185        O  0.76914994  0.73753422  0.72122929    -0.62400
O186        O  0.75906580  0.81313473  0.74947739    -0.70800
O187        O  0.73822569  0.79172390  0.77582430    -0.70300
O188        O  0.74774052  0.71578451  0.74718898    -0.61600
O189        O  0.78079733  0.74838928  0.77526212    -0.74100
O190        O  0.70478120  0.75887610  0.74783707    -0.72900
Cu191      Cu  0.76468583  0.77603868  0.73445815     1.04600
Cu192      Cu  0.74212828  0.75297903  0.76242557     1.04300
C193        C  0.70309819  0.77082862  0.73018776     0.93400
C194        C  0.80352459  0.75756563  0.76673713     0.92600
C195        C  0.76017913  0.71463298  0.72968140     0.84700
C196        C  0.74744352  0.81447872  0.76724200     0.91000
N197        N  0.95928144  0.73521580  0.81388357    -0.27100
N198        N  0.94501113  0.72848844  0.83068423    -0.35000
C199        C  0.91696669  0.73103989  0.82700968     0.01200
C200        C  0.91307288  0.73983541  0.80682291     0.07300
C201        C  0.94054629  0.74221234  0.79895058    -0.05800
H202        H  0.90065124  0.72701065  0.83838236     0.07900
H203        H  0.94660980  0.74815252  0.78349053     0.09100
Cu204      Cu  0.96413371  0.71626794  0.85797378     0.44200
Cu205      Cu  0.00364400  0.73487793  0.81309503     0.42000
Cu206      Cu  0.03985685  0.72275069  0.86322850     0.43900
N207        N  0.98582007  0.70579543  0.88463771    -0.34500
N208        N  0.01351644  0.70942539  0.88724868    -0.28700
C209        C  0.02064044  0.70065932  0.90637602    -0.04800
C210        C  0.99623177  0.69069274  0.91596235     0.07400
C211        C  0.97469263  0.69411532  0.90169345     0.01200
H212        H  0.04213328  0.70011070  0.91241171     0.08800
H213        H  0.95255570  0.68820987  0.90347524     0.07900
N214        N  0.06057612  0.73157285  0.83550115    -0.35900
N215        N  0.04760724  0.73526975  0.81760022    -0.28100
C216        C  0.06736715  0.73964842  0.80297131    -0.03400
C217        C  0.09425161  0.73871797  0.81191174     0.05300
C218        C  0.08892214  0.73361933  0.83264272     0.03300
H219        H  0.06234213  0.74299561  0.78690748     0.08500
H220        H  0.10429384  0.73178531  0.84495851     0.07300
O221        O  0.24288659  0.81231219  0.75354374    -0.72800
O222        O  0.23965867  0.73694712  0.72346578    -0.73700
O223        O  0.20340089  0.76647288  0.75199305    -0.62400
O224        O  0.27906401  0.78327254  0.72543370    -0.70800
O225        O  0.30098835  0.76182494  0.75142177    -0.70300
O226        O  0.22554842  0.74545416  0.77803403    -0.61600
O227        O  0.26158309  0.71579526  0.74953277    -0.74100
O228        O  0.26500119  0.79114500  0.77954467    -0.72900
Cu229      Cu  0.24044590  0.77540121  0.73768859     1.04600
Cu230      Cu  0.26401612  0.75277310  0.76550300     1.04300
C231        C  0.25458138  0.81369378  0.77129988     0.93400
C232        C  0.25028492  0.71441266  0.73163343     0.92600
C233        C  0.20247478  0.75386503  0.76944511     0.84700
C234        C  0.30207929  0.77544061  0.73438823     0.91000
N235        N  0.95794732  0.29353526  0.81208009    -0.27100
N236        N  0.94442632  0.30466084  0.82801430    -0.35000
C237        C  0.91625674  0.30440233  0.82443314     0.01200
C238        C  0.91150077  0.29257984  0.80520656     0.07300
C239        C  0.93852591  0.28579869  0.79784129    -0.05800
H240        H  0.90044563  0.31132984  0.83547604     0.07900
H241        H  0.94369845  0.27585879  0.78327618     0.09100
Cu242      Cu  0.96435209  0.31774391  0.85468719     0.44200
Cu243      Cu  0.00223204  0.28914908  0.81154786     0.42000
Cu244      Cu  0.03895351  0.30341923  0.86092496     0.43900
N245        N  0.98607868  0.32525911  0.88175745    -0.34500
N246        N  0.01317109  0.31861636  0.88477411    -0.28700
C247        C  0.02027545  0.32554275  0.90428827    -0.04800
C248        C  0.99651025  0.33741722  0.91370656     0.07400
C249        C  0.97537556  0.33704114  0.89893664     0.01200
H250        H  0.04142802  0.32344741  0.91076681     0.08800
H251        H  0.95378275  0.34495014  0.90050711     0.07900
N252        N  0.05950494  0.29290144  0.83338236    -0.35900
N253        N  0.04638000  0.28811287  0.81570036    -0.28100
C254        C  0.06605854  0.28323472  0.80103143    -0.03400
C255        C  0.09313793  0.28488280  0.80974367     0.05300
C256        C  0.08783943  0.29109400  0.83035314     0.03300
H257        H  0.06061670  0.27939856  0.78513505     0.08500
H258        H  0.10337631  0.29429959  0.84241409     0.07300
O259        O  0.26045635  0.31298437  0.75231303    -0.72800
O260        O  0.27094039  0.23682828  0.77984436    -0.73700
O261        O  0.30381143  0.27025643  0.75217203    -0.62400
O262        O  0.22740529  0.27959617  0.77999156    -0.70800
O263        O  0.20636405  0.25919607  0.75329009    -0.70300
O264        O  0.28281143  0.24775638  0.72630867    -0.61600
O265        O  0.24878061  0.21553738  0.75394431    -0.74100
O266        O  0.24045042  0.29149993  0.72561292    -0.72900
Cu267      Cu  0.26636456  0.27565043  0.76700045     1.04600
Cu268      Cu  0.24387046  0.25278195  0.73887410     1.04300
C269        C  0.24894365  0.31430835  0.73450062     0.93400
C270        C  0.26157334  0.21412551  0.77129627     0.92600
C271        C  0.30541417  0.25725175  0.73489575     0.84700
C272        C  0.20471783  0.27105646  0.77099101     0.91000
N273        N  0.26961851  0.96976183  0.81988027    -0.27100
N274        N  0.27387879  0.95589385  0.83733087    -0.35000
C275        C  0.27078468  0.92774681  0.83385771     0.01200
C276        C  0.26435594  0.92342747  0.81316333     0.07300
C277        C  0.26383895  0.95082526  0.80488212    -0.05800
H278        H  0.27367621  0.91164994  0.84560275     0.07900
H279        H  0.26056469  0.95688745  0.78902618     0.09100
Cu280      Cu  0.28665825  0.97527592  0.86478550     0.44200
Cu281      Cu  0.27321547  0.01370838  0.81669383     0.42000
Cu282      Cu  0.30456479  0.04997522  0.85995082     0.43900
N283        N  0.30587461  0.99874643  0.88832642    -0.34500
N284        N  0.31392594  0.02558112  0.88584898    -0.28700
C285        C  0.32869141  0.03392592  0.90252844    -0.04800
C286        C  0.32953606  0.01155087  0.91639561     0.07400
C287        C  0.31479626  0.98954907  0.90695383     0.01200
H288        H  0.33834799  0.05472482  0.90435636     0.08800
H289        H  0.31214533  0.96802643  0.91268658     0.07900
N290        N  0.29018994  0.07093213  0.83368822    -0.35900
N291        N  0.27849862  0.05765028  0.81787569    -0.28100
C292        C  0.27069409  0.07709075  0.80367730    -0.03400
C293        C  0.27769647  0.10408164  0.81089850     0.05300
C294        C  0.29014653  0.09919711  0.82997377     0.03300
H295        H  0.26096535  0.07174481  0.78909916     0.08500
H296        H  0.29814526  0.11504402  0.84060628     0.07300
N297        N  0.24055975  0.55886388  0.68237277    -0.27100
N298        N  0.23627481  0.57162051  0.66447239    -0.35000
C299        C  0.23849875  0.60008353  0.66710469     0.01200
C300        C  0.24428576  0.60572356  0.68772368     0.07300
C301        C  0.24557505  0.57886486  0.69679849    -0.05800
H302        H  0.23567459  0.61538862  0.65482322     0.07900
H303        H  0.24883198  0.57412968  0.71292200     0.09100
Cu304      Cu  0.22457951  0.55007447  0.63758327     0.44200
Cu305      Cu  0.23743618  0.51492280  0.68701103     0.42000
Cu306      Cu  0.20252199  0.47706640  0.64623437     0.43900
N307        N  0.20631744  0.52441167  0.61484094    -0.34500
N308        N  0.19660221  0.49847706  0.61871847    -0.28700
C309        C  0.18377387  0.48818068  0.60181152    -0.04800
C310        C  0.18587533  0.50831502  0.58636727     0.07400
C311        C  0.20036644  0.53104514  0.59507870     0.01200
H312        H  0.17382549  0.46741200  0.60080156     0.08800
H313        H  0.20520306  0.55127998  0.58786450     0.07900
N314        N  0.21734622  0.45733283  0.67263628    -0.35900
N315        N  0.23084820  0.47094179  0.68750116    -0.28100
C316        C  0.23958716  0.45177662  0.70163824    -0.03400
C317        C  0.23112050  0.42465665  0.69538353     0.05300
C318        C  0.21704639  0.42925628  0.67687251     0.03300
H319        H  0.25196052  0.45732589  0.71507324     0.08500
H320        H  0.20750364  0.41339441  0.66695572     0.07300
N321        N  0.54768358  0.25028542  0.68033484    -0.27100
N322        N  0.56031135  0.24831501  0.66220447    -0.35000
C323        C  0.58862830  0.25105379  0.66477510     0.01200
C324        C  0.59434333  0.25476184  0.68560247     0.07300
C325        C  0.56766511  0.25421130  0.69488067    -0.05800
H326        H  0.60369117  0.25010745  0.65223592     0.07900
H327        H  0.56296444  0.25577196  0.71112898     0.09100
Cu328      Cu  0.53930478  0.23898157  0.63485449     0.44200
Cu329      Cu  0.50398956  0.24656542  0.68515163     0.42000
Cu330      Cu  0.46550211  0.21994090  0.64177983     0.43900
N331        N  0.51464965  0.22085289  0.61175481    -0.34500
N332        N  0.48816474  0.21235004  0.61491522    -0.28700
C333        C  0.47912052  0.19782462  0.59833703    -0.04800
C334        C  0.50070768  0.19760108  0.58389039     0.07400
C335        C  0.52294585  0.21245984  0.59282120     0.01200
H336        H  0.45850011  0.18770733  0.59704847     0.08800
H337        H  0.54412200  0.21533580  0.58659342     0.07900
N338        N  0.44599825  0.23102403  0.66930086    -0.35900
N339        N  0.45998626  0.24111725  0.68535905    -0.28100
C340        C  0.44119076  0.24708496  0.70045440    -0.03400
C341        C  0.41400271  0.24022439  0.69359446     0.05300
C342        C  0.41802817  0.23021659  0.67370410     0.03300
H343        H  0.44692493  0.25576865  0.71531437     0.08500
H344        H  0.40181102  0.22361092  0.66289220     0.07300
N345        N  0.54548832  0.78293037  0.68411038    -0.27100
N346        N  0.55852135  0.78351881  0.66609019    -0.35000
C347        C  0.58678374  0.78085612  0.66916133     0.01200
C348        C  0.59203060  0.77853986  0.69017285     0.07300
C349        C  0.56510885  0.77996517  0.69907604    -0.05800
H350        H  0.60235731  0.78125075  0.65690923     0.07900
H351        H  0.55990634  0.78008240  0.71526210     0.09100
Cu352      Cu  0.53781241  0.79151273  0.63827584     0.44200
Cu353      Cu  0.50174540  0.78814330  0.68799889     0.42000
Cu354      Cu  0.46349392  0.81246721  0.64363141     0.43900
N355        N  0.51353727  0.80862141  0.61437615    -0.34500
N356        N  0.48704433  0.81774148  0.61693809    -0.28700
C357        C  0.47854778  0.83153764  0.59987161    -0.04800
C358        C  0.50045666  0.83063085  0.58571558     0.07400
C359        C  0.52234596  0.81588644  0.59533029     0.01200
H360        H  0.45811884  0.84206345  0.59808544     0.08800
H361        H  0.54367643  0.81245509  0.58948685     0.07900
N362        N  0.44381874  0.80376996  0.67145766    -0.35900
N363        N  0.45786960  0.79472994  0.68783435    -0.28100
C364        C  0.43917856  0.78984047  0.70311805    -0.03400
C365        C  0.41186467  0.79590299  0.69599843     0.05300
C366        C  0.41582270  0.80484860  0.67583939     0.03300
H367        H  0.44524954  0.78227900  0.71821508     0.08500
H368        H  0.39948608  0.81073090  0.66485850     0.07300
N369        N  0.78367750  0.55869075  0.68352118    -0.27100
N370        N  0.78794342  0.57206792  0.66586725    -0.35000
C371        C  0.78405138  0.60027476  0.66879959     0.01200
C372        C  0.77691076  0.60498948  0.68927033     0.07300
C373        C  0.77696270  0.57799745  0.69807696    -0.05800
H374        H  0.78657145  0.61618655  0.65687826     0.07900
H375        H  0.77341988  0.57264409  0.71404985     0.09100
Cu376      Cu  0.80090142  0.55196175  0.63877082     0.44200
Cu377      Cu  0.78813046  0.51495495  0.68777468     0.42000
Cu378      Cu  0.81874871  0.47742110  0.64527578     0.43900
N379        N  0.81907382  0.52700800  0.61562542    -0.34500
N380        N  0.82691812  0.50018222  0.61870858    -0.28700
C381        C  0.84025213  0.49033148  0.60185993    -0.04800
C382        C  0.84047733  0.51176295  0.58728675     0.07400
C383        C  0.82678019  0.53475797  0.59642374     0.01200
H384        H  0.84905378  0.46903720  0.60032067     0.08800
H385        H  0.82366650  0.55582150  0.58993030     0.07900
N386        N  0.80520801  0.45729195  0.67178497    -0.35900
N387        N  0.79370066  0.47097377  0.68750169    -0.28100
C388        C  0.78533869  0.45176033  0.70163972    -0.03400
C389        C  0.79193654  0.42459334  0.69445377     0.05300
C390        C  0.80449344  0.42906664  0.67542357     0.03300
H391        H  0.77472054  0.45720446  0.71589096     0.08500
H392        H  0.81134892  0.41306791  0.66447235     0.07300
N393        N  0.35971850  0.00850265  0.03287277    -0.27100
N394        N  0.38184191  0.02094930  0.04172494    -0.35000
C395        C  0.37671436  0.02419255  0.06192338     0.01200
C396        C  0.35031211  0.01283756  0.06619191     0.07300
C397        C  0.34008590  0.00291256  0.04749142    -0.05800
H398        H  0.39132498  0.03386070  0.07274712     0.07900
H399        H  0.31952494  0.99331345  0.04461642     0.09100
Cu400      Cu  0.41877123  0.03231546  0.02666523     0.44200
Cu401      Cu  0.35659900  0.00275108  0.00091625     0.42000
Cu402      Cu  0.41790410  0.03086297  0.97217981     0.43900
N403        N  0.45485778  0.03889833  0.00924596    -0.34500
N404        N  0.45478301  0.03850522  0.98892773    -0.28700
C405        C  0.48175061  0.04128756  0.98214596    -0.04800
C406        C  0.49953371  0.04336494  0.99911125     0.07400
C407        C  0.48173710  0.04182031  0.01600910     0.01200
H408        H  0.48803123  0.04052944  0.96613621     0.08800
H409        H  0.48791569  0.04167363  0.03205395     0.07900
N410        N  0.37950212  0.01890328  0.95886436    -0.35900
N411        N  0.35787813  0.00707888  0.96876643    -0.28100
C412        C  0.33695120  0.00151209  0.95505732    -0.03400
C413        C  0.34576088  0.01078615  0.93582398     0.05300
C414        C  0.37268484  0.02176611  0.93887738     0.03300
H415        H  0.31635699  0.99273409  0.95896636     0.08500
H416        H  0.38635585  0.03128371  0.92738236     0.07300
N417        N  0.99514740  0.35966214  0.96762808    -0.27100
N418        N  0.98121224  0.38088936  0.95859374    -0.35000
C419        C  0.98003582  0.37610713  0.93825294     0.01200
C420        C  0.99431543  0.35099833  0.93405559     0.07300
C421        C  0.00375145  0.34104082  0.95297894    -0.05800
H422        H  0.96964330  0.39006715  0.92727205     0.07900
H423        H  0.01497283  0.32123305  0.95595738     0.09100
Cu424      Cu  0.96512296  0.41669641  0.97322141     0.44200
Cu425      Cu  0.99906977  0.35608861  0.99969907     0.42000
Cu426      Cu  0.96539082  0.41575571  0.02719014     0.43900
N427        N  0.95569158  0.45266213  0.99038549    -0.34500
N428        N  0.95607099  0.45236695  0.01068887    -0.28700
C429        C  0.95255525  0.47917369  0.01770140    -0.04800
C430        C  0.94986682  0.49721523  0.00092389     0.07400
C431        C  0.95185817  0.47965875  0.98383812     0.01200
H432        H  0.95348622  0.48522087  0.03375841     0.08800
H433        H  0.95226153  0.48618178  0.96786846     0.07900
N434        N  0.97945928  0.37854260  0.04107724    -0.35900
N435        N  0.99328854  0.35753670  0.03170709    -0.28100
C436        C  0.00051754  0.33770578  0.04590462    -0.03400
C437        C  0.99022402  0.34661435  0.06486028     0.05300
C438        C  0.97693327  0.37240959  0.06117135     0.03300
H439        H  0.01155352  0.31790256  0.04257611     0.08500
H440        H  0.96648706  0.38600146  0.07235577     0.07300
N441        N  0.95757090  0.73751704  0.18690194    -0.27100
N442        N  0.94317407  0.72927644  0.17049664    -0.35000
C443        C  0.91513048  0.73113396  0.17452509     0.01200
C444        C  0.91148320  0.74104449  0.19452323     0.07300
C445        C  0.93906050  0.74479028  0.20186388    -0.05800
H446        H  0.89863380  0.72581068  0.16355235     0.07900
H447        H  0.94542557  0.75175388  0.21705431     0.09100
Cu448      Cu  0.96267695  0.71607638  0.14340083     0.44200
Cu449      Cu  0.00178882  0.73853992  0.18750311     0.42000
Cu450      Cu  0.03826808  0.72881880  0.13785686     0.43900
N451        N  0.98583662  0.70618682  0.11709314    -0.34500
N452        N  0.01302149  0.71254349  0.11437537    -0.28700
C453        C  0.02118672  0.70365020  0.09552216    -0.04800
C454        C  0.99808985  0.69068501  0.08619264     0.07400
C455        C  0.97617930  0.69251138  0.10032303     0.01200
H456        H  0.04266436  0.70505071  0.08956332     0.08800
H457        H  0.95479064  0.68428046  0.09860622     0.07900
N458        N  0.05879722  0.73690793  0.16559582    -0.35900
N459        N  0.04567401  0.73963299  0.18349888    -0.28100
C460        C  0.06527244  0.74291308  0.19840004    -0.03400
C461        C  0.09216893  0.74238671  0.18953266     0.05300
C462        C  0.08709585  0.73845433  0.16867898     0.03300
H463        H  0.06007013  0.74479901  0.21454186     0.08500
H464        H  0.10278342  0.73668858  0.15655171     0.07300
O465        O  0.26074129  0.71329238  0.24787120    -0.72800
O466        O  0.26657173  0.78939028  0.21924124    -0.73700
O467        O  0.30177451  0.75829320  0.24679290    -0.62400
O468        O  0.22544499  0.74488628  0.22011249    -0.70800
O469        O  0.20414010  0.76615739  0.24640904    -0.70300
O470        O  0.27987405  0.77860702  0.27329354    -0.61600
O471        O  0.24524332  0.81041197  0.24564203    -0.74100
O472        O  0.23888299  0.73435198  0.27400550    -0.72900
Cu473      Cu  0.26435935  0.75068504  0.23257844     1.04600
Cu474      Cu  0.24129330  0.77306036  0.26073645     1.04300
C475        C  0.24891737  0.71177891  0.26557933     0.93400
C476        C  0.25699048  0.81198557  0.22793125     0.92600
C477        C  0.30280586  0.77075916  0.26428618     0.84700
C478        C  0.20269425  0.75368929  0.22894642     0.91000
O479        O  0.75819620  0.81340241  0.25322383    -0.72800
O480        O  0.76812124  0.73757539  0.28171331    -0.73700
O481        O  0.80141369  0.77031681  0.25353369    -0.62400
O482        O  0.72483418  0.78057280  0.28122392    -0.70800
O483        O  0.70393445  0.75892557  0.25498213    -0.70300
O484        O  0.77993226  0.74842024  0.22764747    -0.61600
O485        O  0.74679211  0.71586614  0.25568258    -0.74100
O486        O  0.73716675  0.79167497  0.22707335    -0.72900
Cu487      Cu  0.76387090  0.77623207  0.26834384     1.04600
Cu488      Cu  0.74125210  0.75300716  0.24045616     1.04300
C489        C  0.74610742  0.81458744  0.23559491     0.93400
C490        C  0.75904300  0.71467280  0.27325908     0.92600
C491        C  0.80272447  0.75756049  0.23612795     0.84700
C492        C  0.70223427  0.77130458  0.27247376     0.91000
N493        N  0.72206338  0.05889444  0.18815832    -0.27100
N494        N  0.71793104  0.07269243  0.17067529    -0.35000
C495        C  0.71878946  0.10097930  0.17423798     0.01200
C496        C  0.72365587  0.10539492  0.19506926     0.07300
C497        C  0.72564055  0.07809246  0.20335344    -0.05800
H498        H  0.71705700  0.11698577  0.16230947     0.07900
H499        H  0.72975219  0.07249616  0.21923167     0.09100
Cu500      Cu  0.71270278  0.05230789  0.14265187     0.44200
Cu501      Cu  0.72456143  0.01453183  0.19003839     0.42000
Cu502      Cu  0.72600917  0.97620964  0.14105093     0.43900
N503        N  0.70840589  0.02760467  0.11641046    -0.34500
N504        N  0.71458946  0.00005276  0.11539714    -0.28700
C505        C  0.70792746  0.99031748  0.09648261    -0.04800
C506        C  0.69672643  0.01281593  0.08527439     0.07400
C507        C  0.69715358  0.03599954  0.09839000     0.01200
H508        H  0.70888124  0.96812617  0.09186388     0.08800
H509        H  0.68868367  0.05712404  0.09537794     0.07900
N510        N  0.72995465  0.95664354  0.16959730    -0.35900
N511        N  0.72914406  0.97038536  0.18737727    -0.28100
C512        C  0.73160210  0.95127299  0.20277115    -0.03400
C513        C  0.73401546  0.92414411  0.19430329     0.05300
C514        C  0.73275802  0.92848959  0.17322111     0.03300
H515        H  0.73107429  0.95678797  0.21892983     0.08500
H516        H  0.73390182  0.91237234  0.16131228     0.07300
O517        O  0.79965515  0.25561265  0.25442921    -0.72800
O518        O  0.72350142  0.24854359  0.28296972    -0.73700
O519        O  0.75502509  0.21415336  0.25465104    -0.62400
O520        O  0.76847010  0.28982283  0.28251104    -0.70800
O521        O  0.74701305  0.31191983  0.25660360    -0.70300
O522        O  0.73418984  0.23654607  0.22863494    -0.61600
O523        O  0.70276810  0.27062910  0.25677764    -0.74100
O524        O  0.77832833  0.27819870  0.22868366    -0.72900
Cu525      Cu  0.76234191  0.25119030  0.26957093     1.04600
Cu526      Cu  0.73983033  0.27500961  0.24179880     1.04300
C527        C  0.80104250  0.26869028  0.23717814     0.93400
C528        C  0.70103185  0.25851748  0.27435460     0.92600
C529        C  0.74250807  0.21335325  0.23716834     0.84700
C530        C  0.76032699  0.31293062  0.27374604     0.91000
N531        N  0.27143097  0.96757037  0.18010410    -0.27100
N532        N  0.27742196  0.95438385  0.16263335    -0.35000
C533        C  0.27570657  0.92600627  0.16559035     0.01200
C534        C  0.26841916  0.92094383  0.18596681     0.07300
C535        C  0.26566687  0.94791509  0.19460832    -0.05800
H536        H  0.27988897  0.91033755  0.15373868     0.07900
H537        H  0.26098999  0.95293333  0.21050726     0.09100
Cu538      Cu  0.29100246  0.97511009  0.13611154     0.44200
Cu539      Cu  0.27406271  0.01150499  0.18404080     0.42000
Cu540      Cu  0.31480365  0.04734551  0.14468997     0.43900
N541        N  0.31230304  0.99902183  0.11403924    -0.34500
N542        N  0.32298031  0.02457550  0.11789999    -0.28700
C543        C  0.33798801  0.03332843  0.10146057    -0.04800
C544        C  0.33617281  0.01256373  0.08638321     0.07400
C545        C  0.31967815  0.99113039  0.09481294     0.01200
H546        H  0.34905963  0.05351263  0.10044819     0.08800
H547        H  0.31437143  0.97086128  0.08781581     0.07900
N548        N  0.29718856  0.06809352  0.16991969    -0.35900
N549        N  0.28176074  0.05515417  0.18410907    -0.28100
C550        C  0.27178437  0.07480155  0.19742966    -0.03400
C551        C  0.28137304  0.10152919  0.19134573     0.05300
C552        C  0.29741687  0.09629764  0.17380694     0.03300
H553        H  0.25775909  0.06992282  0.21013350     0.08500
H554        H  0.30819029  0.11186533  0.16432153     0.07300
N555        N  0.95479006  0.28967009  0.18745210    -0.27100
N556        N  0.94028752  0.29855719  0.17122705    -0.35000
C557        C  0.91232328  0.29823122  0.17562300     0.01200
C558        C  0.90879943  0.28885271  0.19571641     0.07300
C559        C  0.93632320  0.28349095  0.20268049    -0.05800
H560        H  0.89585371  0.30365510  0.16464633     0.07900
H561        H  0.94253027  0.27563539  0.21768992     0.09100
Cu562      Cu  0.95885201  0.30994568  0.14348244     0.44200
Cu563      Cu  0.99900776  0.28577406  0.18736679     0.42000
Cu564      Cu  0.03410778  0.29825478  0.13750873     0.43900
N565        N  0.98069765  0.31840400  0.11644269    -0.34500
N566        N  0.00807395  0.31277450  0.11371318    -0.28700
C567        C  0.01553263  0.32054706  0.09446832    -0.04800
C568        C  0.99173466  0.33195145  0.08484723     0.07400
C569        C  0.97015771  0.33045059  0.09926475     0.01200
H570        H  0.03697596  0.31953891  0.08838861     0.08800
H571        H  0.94846282  0.33800109  0.09751420     0.07900
N572        N  0.05544151  0.28778521  0.16462516    -0.35900
N573        N  0.04284531  0.28338209  0.18255366    -0.28100
C574        C  0.06291392  0.27792920  0.19684756    -0.03400
C575        C  0.08953101  0.27890387  0.18755312     0.05300
C576        C  0.08382319  0.28532763  0.16711055     0.03300
H577        H  0.05832705  0.27440407  0.21294858     0.08500
H578        H  0.09916856  0.28813196  0.15486618     0.07300
O579        O  0.23380530  0.29002657  0.27229279    -0.72800
O580        O  0.24614003  0.21397334  0.24519400    -0.73700
O581        O  0.27775699  0.24800500  0.27293537    -0.62400
O582        O  0.20213379  0.25575598  0.24438261    -0.70800
O583        O  0.22305994  0.27740902  0.21817253    -0.70300
O584        O  0.29914650  0.26951563  0.24685078    -0.61600
O585        O  0.26709344  0.23533193  0.21883639    -0.74100
O586        O  0.25493558  0.31167855  0.24617178    -0.72900
Cu587      Cu  0.23922736  0.25125755  0.25958817     1.04600
Cu588      Cu  0.26179277  0.27426111  0.23158294     1.04300
C589        C  0.24241330  0.31293258  0.26363512     0.93400
C590        C  0.25863511  0.21253408  0.22775418     0.92600
C591        C  0.30049372  0.25724098  0.26442349     0.84700
C592        C  0.20053125  0.26771532  0.22672576     0.91000
N593        N  0.45539011  0.23960370  0.31410305    -0.27100
N594        N  0.44194728  0.22745087  0.32961880    -0.35000
C595        C  0.41387239  0.22686765  0.32554187     0.01200
C596        C  0.40907228  0.23908768  0.30632963     0.07300
C597        C  0.43612917  0.24695728  0.29962520    -0.05800
H598        H  0.39826941  0.21885852  0.33627323     0.07900
H599        H  0.44153869  0.25737542  0.28530825     0.09100
Cu600      Cu  0.46217618  0.21366397  0.35625608     0.44200
Cu601      Cu  0.49932911  0.24607312  0.31431775     0.42000
Cu602      Cu  0.53493455  0.23542736  0.36421709     0.43900
N603        N  0.48465108  0.20619713  0.38324673    -0.34500
N604        N  0.51056615  0.21600598  0.38686771    -0.28700
C605        C  0.51845674  0.20849666  0.40608146    -0.04800
C606        C  0.49658382  0.19281340  0.41472420     0.07400
C607        C  0.47560793  0.19166658  0.39981260     0.01200
H608        H  0.53904968  0.21292184  0.41284782     0.08800
H609        H  0.45520699  0.18108074  0.40092696     0.07900
N610        N  0.55592830  0.24555857  0.33705143    -0.35900
N611        N  0.54319783  0.24898083  0.31904216    -0.28100
C612        C  0.56321033  0.25282708  0.30449252    -0.03400
C613        C  0.58992072  0.25178671  0.31370146     0.05300
C614        C  0.58431806  0.24710128  0.33438428     0.03300
H615        H  0.55850216  0.25495453  0.28827711     0.08500
H616        H  0.59973660  0.24441503  0.34662128     0.07300
N617        N  0.23662273  0.55670950  0.31526553    -0.27100
N618        N  0.23627529  0.57042173  0.33307319    -0.35000
C619        C  0.23958969  0.59853394  0.32943448     0.01200
C620        C  0.24221988  0.60279016  0.30834678     0.07300
C621        C  0.24021478  0.57565926  0.29993399    -0.05800
H622        H  0.23961858  0.61473107  0.34130848     0.07900
H623        H  0.24021531  0.57001636  0.28379876     0.09100
Cu624      Cu  0.22900539  0.55081869  0.36153746     0.44200
Cu625      Cu  0.23114192  0.51300754  0.31188659     0.42000
Cu626      Cu  0.21750903  0.47445214  0.35811391     0.43900
N627        N  0.21559664  0.52586839  0.38640637    -0.34500
N628        N  0.21044970  0.49821177  0.38458528    -0.28700
C629        C  0.19820020  0.48872276  0.40195117    -0.04800
C630        C  0.19593971  0.51121955  0.41560093     0.07400
C631        C  0.20719931  0.53452789  0.40529978     0.01200
H632        H  0.19045107  0.46720301  0.40417603     0.08800
H633        H  0.20727114  0.55647071  0.41052990     0.07900
N634        N  0.22342817  0.45460890  0.32989151    -0.35900
N635        N  0.22778661  0.46887167  0.31268215    -0.28100
C636        C  0.23077641  0.45022538  0.29706662    -0.03400
C637        C  0.22844851  0.42261301  0.30480537     0.05300
C638        C  0.22369723  0.42648021  0.32575448     0.03300
H639        H  0.23440658  0.45665637  0.28133189     0.08500
H640        H  0.22113418  0.41012300  0.33734270     0.07300
N641        N  0.78173265  0.55782131  0.31878586    -0.27100
N642        N  0.78488156  0.57119731  0.33658139    -0.35000
C643        C  0.78133405  0.59942241  0.33360574     0.01200
C644        C  0.77547994  0.60430212  0.31296867     0.07300
C645        C  0.77600022  0.57729632  0.30406813    -0.05800
H646        H  0.78284469  0.61522297  0.34570147     0.07900
H647        H  0.77311616  0.57206932  0.28799676     0.09100
Cu648      Cu  0.79472422  0.55132554  0.36437972     0.44200
Cu649      Cu  0.78566922  0.51364487  0.31503251     0.42000
Cu650      Cu  0.80777882  0.47611864  0.36078041     0.43900
N651        N  0.80883581  0.52693655  0.38917475    -0.34500
N652        N  0.81461450  0.49940346  0.38731817    -0.28700
C653        C  0.82699487  0.49002836  0.40468167    -0.04800
C654        C  0.82874228  0.51257844  0.41831132     0.07400
C655        C  0.81700118  0.53572878  0.40804821     0.01200
H656        H  0.83528330  0.46864002  0.40687753     0.08800
H657        H  0.81654062  0.55768374  0.41324682     0.07900
N658        N  0.79828314  0.45583823  0.33340961    -0.35900
N659        N  0.79002409  0.46927636  0.31654234    -0.28100
C660        C  0.78378847  0.44968021  0.30204911    -0.03400
C661        C  0.78838416  0.42257540  0.31021276     0.05300
C662        C  0.79755846  0.42751340  0.33016846     0.03300
H663        H  0.77586616  0.45482825  0.28685419     0.08500
H664        H  0.80199123  0.41179501  0.34194043     0.07300
N665        N  0.45638280  0.79719339  0.31224627    -0.27100
N666        N  0.44229673  0.80641965  0.32855176    -0.35000
C667        C  0.41420969  0.80569177  0.32461534     0.01200
C668        C  0.41013044  0.79512350  0.30488143     0.07300
C669        C  0.43750045  0.79026929  0.29745317    -0.05800
H670        H  0.39811422  0.81209307  0.33558822     0.07900
H671        H  0.44328917  0.78125068  0.28270148     0.09100
Cu672      Cu  0.46134342  0.81666451  0.35631823     0.44200
Cu673      Cu  0.50054059  0.79255423  0.31187773     0.42000
Cu674      Cu  0.53610508  0.80119714  0.36177690     0.43900
N675        N  0.48340495  0.82143851  0.38369972    -0.34500
N676        N  0.51054744  0.81452567  0.38614453    -0.28700
C677        C  0.51835217  0.82048447  0.40565075    -0.04800
C678        C  0.49502671  0.83198670  0.41576314     0.07400
C679        C  0.47335525  0.83242978  0.40137122     0.01200
H680        H  0.53982354  0.81845255  0.41157285     0.08800
H681        H  0.45205237  0.84090852  0.40341176     0.07900
N682        N  0.55715678  0.79191675  0.33436365    -0.35900
N683        N  0.54438455  0.78886312  0.31634677    -0.28100
C684        C  0.56427753  0.78387350  0.30184712    -0.03400
C685        C  0.59097296  0.78378116  0.31110691     0.05300
C686        C  0.58546792  0.78903794  0.33175079     0.03300
H687        H  0.55953333  0.78142706  0.28566112     0.08500
H688        H  0.60090588  0.79078747  0.34405201     0.07300
C689        C  0.37929856  0.26241022  0.27866613    -0.21100
C690        C  0.38118484  0.24365648  0.29558341    -0.09200
C691        C  0.35615073  0.22954404  0.30194739     0.29700
C692        C  0.33024246  0.23443106  0.29186838    -0.21100
C693        C  0.32838832  0.25311434  0.27499972    -0.09200
C694        C  0.35333725  0.26705745  0.26843727     0.29700
F695        F  0.35271755  0.28546466  0.25230313    -0.19700
H696        H  0.39789085  0.27381304  0.27333611     0.18100
H697        H  0.31156593  0.22306947  0.29716752     0.18100
F698        F  0.35645255  0.21034308  0.31755373    -0.19700
C699        C  0.24617381  0.36638146  0.26401769    -0.21100
C700        C  0.23802803  0.34100712  0.27392492    -0.09200
C701        C  0.22607817  0.34287456  0.29376667     0.29700
C702        C  0.22271442  0.36939094  0.30338707    -0.21100
C703        C  0.23124469  0.39481935  0.29366268    -0.09200
C704        C  0.24291508  0.39294307  0.27367762     0.29700
F705        F  0.25200587  0.41646300  0.26349059    -0.19700
H706        H  0.25542026  0.36572221  0.24875425     0.18100
H707        H  0.21334856  0.36979943  0.31858583     0.18100
F708        F  0.21786208  0.31910707  0.30411609    -0.19700
C709        C  0.14213091  0.28816569  0.18855925    -0.21100
C710        C  0.11799251  0.27534652  0.19738826    -0.09200
C711        C  0.12146872  0.25942783  0.21561802     0.29700
C712        C  0.14828411  0.25704522  0.22491962    -0.21100
C713        C  0.17236701  0.27024196  0.21628749    -0.09200
C714        C  0.16899504  0.28569482  0.19781952     0.29700
F715        F  0.19148683  0.29879144  0.18875697    -0.19700
H716        H  0.14021390  0.30062806  0.17459351     0.18100
H717        H  0.15015730  0.24465517  0.23893398     0.18100
F718        F  0.09920432  0.24548064  0.22427780    -0.19700
C719        C  0.27638341  0.15469384  0.18864800    -0.21100
C720        C  0.27488840  0.12979886  0.20071940    -0.09200
C721        C  0.26740303  0.13242754  0.22162827     0.29700
C722        C  0.26178164  0.15931255  0.23013543    -0.21100
C723        C  0.26366585  0.18421275  0.21812806    -0.09200
C724        C  0.27084842  0.18159256  0.19717921     0.29700
F725        F  0.27218064  0.20491202  0.18480587    -0.19700
H726        H  0.28160610  0.15341829  0.17245184     0.18100
H727        H  0.25649935  0.16064991  0.24633386     0.18100
F728        F  0.26646648  0.10926460  0.23414583    -0.19700
C729        C  0.83066885  0.29361769  0.21091484    -0.21100
C730        C  0.82895199  0.27367294  0.22701988    -0.09200
C731        C  0.85404449  0.25952504  0.23332732     0.29700
C732        C  0.87995333  0.26479778  0.22328342    -0.21100
C733        C  0.88147331  0.28434521  0.20686820    -0.09200
C734        C  0.85650899  0.29910368  0.20106033     0.29700
F735        F  0.85698227  0.31949166  0.18623494    -0.19700
H736        H  0.81194094  0.30540458  0.20602394     0.18100
H737        H  0.89873888  0.25312669  0.22815981     0.18100
F738        F  0.85357340  0.24026457  0.24893590    -0.19700
C739        C  0.78750961  0.34272592  0.29896553    -0.21100
C740        C  0.76709552  0.34100727  0.28318005    -0.09200
C741        C  0.75433206  0.36644570  0.27603917     0.29700
C742        C  0.76168973  0.39278355  0.28468312    -0.21100
C743        C  0.78190404  0.39449403  0.30059807    -0.09200
C744        C  0.79501863  0.36908781  0.30750916     0.29700
F745        F  0.81570148  0.36960188  0.32210669    -0.19700
H746        H  0.79813006  0.32363269  0.30451069     0.18100
H747        H  0.75105921  0.41182838  0.27910432     0.18100
F748        F  0.73442246  0.36597942  0.26087891    -0.19700
C749        C  0.64238761  0.24097332  0.31294666    -0.21100
C750        C  0.61833153  0.25349338  0.30358926    -0.09200
C751        C  0.62184668  0.26752216  0.28459960     0.29700
C752        C  0.64866632  0.26883318  0.27529138    -0.21100
C753        C  0.67275237  0.25635005  0.28460995    -0.09200
C754        C  0.66927701  0.24228527  0.30361751     0.29700
F755        F  0.69172197  0.22966332  0.31323014    -0.19700
H756        H  0.64041450  0.22978210  0.32744764     0.18100
H757        H  0.65054824  0.27997444  0.26075123     0.18100
F758        F  0.59964434  0.28081474  0.27519686    -0.19700
C759        C  0.74367184  0.13390712  0.22431972    -0.21100
C760        C  0.72786730  0.13306394  0.20593711    -0.09200
C761        C  0.71659338  0.15883183  0.19814051     0.29700
C762        C  0.72146705  0.18466843  0.20837658    -0.21100
C763        C  0.73750843  0.18555576  0.22666364    -0.09200
C764        C  0.74848931  0.15973301  0.23458831     0.29700
F765        F  0.76419306  0.15929636  0.25213656    -0.19700
H766        H  0.75282558  0.11456856  0.23067271     0.18100
H767        H  0.71244540  0.20405440  0.20196693     0.18100
F768        F  0.70022255  0.15918255  0.18092352    -0.19700
C769        C  0.75304760  0.86771838  0.23425855    -0.21100
C770        C  0.74257268  0.84263886  0.22504939    -0.09200
C771        C  0.72899423  0.84482620  0.20574009     0.29700
C772        C  0.72630430  0.87133885  0.19596302    -0.21100
C773        C  0.73680684  0.89633984  0.20516861    -0.09200
C774        C  0.75020640  0.89426042  0.22450355     0.29700
F775        F  0.76148510  0.91764178  0.23372734    -0.19700
H776        H  0.76371989  0.86682870  0.24903057     0.18100
H777        H  0.71566758  0.87229539  0.18118324     0.18100
F778        F  0.71823267  0.82143321  0.19619855    -0.19700
C779        C  0.64379678  0.79180674  0.31055926    -0.21100
C780        C  0.61937755  0.78031503  0.30115770    -0.09200
C781        C  0.62257635  0.76571528  0.28233308     0.29700
C782        C  0.64946062  0.76303305  0.27318183    -0.21100
C783        C  0.67388071  0.77465948  0.28252197    -0.09200
C784        C  0.67070029  0.78910280  0.30141851     0.29700
F785        F  0.69346991  0.80081383  0.31110970    -0.19700
H786        H  0.64211148  0.80333913  0.32494860     0.18100
H787        H  0.65112371  0.75156511  0.25875093     0.18100
F788        F  0.59997967  0.75324679  0.27294921    -0.19700
C789        C  0.75170363  0.66160734  0.27481342    -0.21100
C790        C  0.76282308  0.68658801  0.28373991    -0.09200
C791        C  0.77761393  0.68420642  0.30256282     0.29700
C792        C  0.78148311  0.65750158  0.31188065    -0.21100
C793        C  0.77071995  0.63247798  0.30280898    -0.09200
C794        C  0.75547680  0.63490708  0.28419353     0.29700
F795        F  0.74349630  0.61170033  0.27522673    -0.19700
H796        H  0.73991236  0.66267329  0.26049720     0.18100
H797        H  0.79336969  0.65646520  0.32614315     0.18100
F798        F  0.78863239  0.70756940  0.31199313    -0.19700
C799        C  0.27703083  0.84235886  0.19979842    -0.21100
C800        C  0.25975815  0.84002043  0.21738337    -0.09200
C801        C  0.24558470  0.86464987  0.22463039     0.29700
C802        C  0.24850042  0.89074334  0.21431971    -0.21100
C803        C  0.26558389  0.89298668  0.19662690    -0.09200
C804        C  0.28008249  0.86845686  0.18958168     0.29700
F805        F  0.29804298  0.86969375  0.17325894    -0.19700
H806        H  0.28858488  0.82396116  0.19401485     0.18100
H807        H  0.23704125  0.90918362  0.22010964     0.18100
F808        F  0.22861078  0.86359639  0.24152159    -0.19700
C809        C  0.33182084  0.77818655  0.29588012    -0.21100
C810        C  0.33052516  0.77629171  0.27436141    -0.09200
C811        C  0.35560330  0.78035595  0.26288494     0.29700
C812        C  0.38132536  0.78657138  0.27288258    -0.21100
C813        C  0.38262420  0.78862900  0.29447828    -0.09200
C814        C  0.35749329  0.78399210  0.30588670     0.29700
F815        F  0.35760955  0.78409514  0.32675315    -0.19700
H816        H  0.31288552  0.77474024  0.30507513     0.18100
H817        H  0.40016864  0.79013676  0.26364333     0.18100
F818        F  0.35512828  0.77922620  0.24200847    -0.19700
C819        C  0.25758443  0.65878623  0.26718613    -0.21100
C820        C  0.24702667  0.68383950  0.27646817    -0.09200
C821        C  0.23507186  0.68184266  0.29632291     0.29700
C822        C  0.23387392  0.65555942  0.30650834    -0.21100
C823        C  0.24432340  0.63052090  0.29723677    -0.09200
C824        C  0.25628617  0.63243117  0.27737923     0.29700
F825        F  0.26747483  0.60909126  0.26794079    -0.19700
H826        H  0.26705746  0.65955298  0.25200040     0.18100
H827        H  0.22428152  0.65483583  0.32164416     0.18100
F828        F  0.22445849  0.70523481  0.30604408    -0.19700
C829        C  0.14497891  0.73422620  0.19024137    -0.21100
C830        C  0.12030359  0.74480535  0.19993384    -0.09200
C831        C  0.12304064  0.75786262  0.21937207     0.29700
C832        C  0.14977083  0.76026675  0.22869771    -0.21100
C833        C  0.17447481  0.74989713  0.21894384    -0.09200
C834        C  0.17174953  0.73669113  0.19956110     0.29700
F835        F  0.19486791  0.72624793  0.18946586    -0.19700
H836        H  0.14365189  0.72381305  0.17540283     0.18100
H837        H  0.15109736  0.77068760  0.24355009     0.18100
F838        F  0.10018582  0.76927388  0.22920158    -0.19700
C839        C  0.85926806  0.73172191  0.19841139    -0.21100
C840        C  0.88391871  0.74555914  0.20551397    -0.09200
C841        C  0.88160183  0.76345751  0.22292087     0.29700
C842        C  0.85529123  0.76711585  0.23286259    -0.21100
C843        C  0.83065867  0.75328808  0.22565355    -0.09200
C844        C  0.83303501  0.73547458  0.20824038     0.29700
F845        F  0.81010846  0.72127205  0.20072547    -0.19700
H846        H  0.86020331  0.71753371  0.18526672     0.18100
H847        H  0.85416313  0.78113358  0.24611289     0.18100
F848        F  0.90441799  0.77812963  0.23008678    -0.19700
C849        C  0.24825826  0.16281861  0.77615544    -0.21100
C850        C  0.26564316  0.18605114  0.78148585    -0.09200
C851        C  0.28691524  0.18205672  0.79651262     0.29700
C852        C  0.29060913  0.15542384  0.80590428    -0.21100
C853        C  0.27323714  0.13214453  0.80062392    -0.09200
C854        C  0.25181440  0.13619977  0.78566422     0.29700
F855        F  0.23364638  0.11484675  0.78060626    -0.19700
H856        H  0.23153081  0.16535622  0.76479537     0.18100
H857        H  0.30746509  0.15298637  0.81715635     0.18100
F858        F  0.30467924  0.20366000  0.80182729    -0.19700
C859        C  0.23376750  0.37115561  0.69411310    -0.21100
C860        C  0.23655201  0.39656916  0.70552017    -0.09200
C861        C  0.24411878  0.39451957  0.72647807     0.29700
C862        C  0.24848696  0.36778800  0.73563323    -0.21100
C863        C  0.24519635  0.34245052  0.72427714    -0.09200
C864        C  0.23793359  0.34445565  0.70330415     0.29700
F865        F  0.23506906  0.32068110  0.69152421    -0.19700
H866        H  0.22847778  0.37175769  0.67791543     0.18100
H867        H  0.25393394  0.36695887  0.75182481     0.18100
F868        F  0.24647029  0.41811691  0.73844859    -0.19700
C869        C  0.33659813  0.23140408  0.70978090    -0.21100
C870        C  0.33349568  0.25284061  0.72476326    -0.09200
C871        C  0.35737367  0.26962264  0.72981848     0.29700
C872        C  0.38352061  0.26516123  0.71985335    -0.21100
C873        C  0.38647055  0.24396212  0.70465506    -0.09200
C874        C  0.36272370  0.22683469  0.69992911     0.29700
F875        F  0.36479883  0.20509207  0.68619489    -0.19700
H876        H  0.31878000  0.21782332  0.70581172     0.18100
H877        H  0.40132697  0.27877593  0.72375395     0.18100
F878        F  0.35534447  0.29087108  0.74396638    -0.19700
C879        C  0.14676290  0.28810877  0.81038564    -0.21100
C880        C  0.12162736  0.28144857  0.79952551    -0.09200
C881        C  0.12439868  0.27145641  0.77909468     0.29700
C882        C  0.15133397  0.26827326  0.77006680    -0.21100
C883        C  0.17633633  0.27486170  0.78097830    -0.09200
C884        C  0.17369515  0.28488666  0.80133278     0.29700
F885        F  0.19708724  0.29139713  0.81268062    -0.19700
H886        H  0.14582684  0.29597887  0.82601085     0.18100
H887        H  0.15254146  0.26051922  0.75438289     0.18100
F888        F  0.10135184  0.26423127  0.76768249    -0.19700
C889        C  0.24865746  0.86699846  0.77203490    -0.21100
C890        C  0.25630922  0.84160389  0.78221625    -0.09200
C891        C  0.26588384  0.84337422  0.80271475     0.29700
C892        C  0.26814338  0.86986931  0.81252564    -0.21100
C893        C  0.26091678  0.89542712  0.80231738    -0.09200
C894        C  0.25085175  0.89355359  0.78185706     0.29700
F895        F  0.24276910  0.91710924  0.77118700    -0.19700
H896        H  0.24107543  0.86640200  0.75629178     0.18100
H897        H  0.27596794  0.87013370  0.82817058     0.18100
F898        F  0.27309156  0.81953565  0.81343923    -0.19700
C899        C  0.35470884  0.76760372  0.73216650    -0.21100
C900        C  0.33021783  0.78188056  0.72505413    -0.09200
C901        C  0.33310054  0.80193426  0.70903608     0.29700
C902        C  0.35976065  0.80675985  0.70002204    -0.21100
C903        C  0.38415013  0.79185052  0.70675153    -0.09200
C904        C  0.38132111  0.77239182  0.72316678     0.29700
F905        F  0.40387328  0.75692672  0.73006574    -0.19700
H906        H  0.35321596  0.75208419  0.74447846     0.18100
H907        H  0.36124754  0.82224608  0.68770278     0.18100
F908        F  0.31028382  0.81707845  0.70213111    -0.19700
C909        C  0.23679687  0.68517225  0.70064673    -0.21100
C910        C  0.24949588  0.68668041  0.72024336    -0.09200
C911        C  0.26125369  0.66147461  0.72864121     0.29700
C912        C  0.25983870  0.63560331  0.71782603    -0.21100
C913        C  0.24673492  0.63396651  0.69836767    -0.09200
C914        C  0.23537883  0.65928495  0.68982260     0.29700
F915        F  0.22198633  0.65914408  0.67132697    -0.19700
H916        H  0.22757545  0.70408799  0.69368178     0.18100
H917        H  0.26914363  0.61676610  0.72481025     0.18100
F918        F  0.27407790  0.66160401  0.74737145    -0.19700
C919        C  0.17395766  0.73719610  0.79978771    -0.21100
C920        C  0.17470202  0.74952450  0.78005293    -0.09200
C921        C  0.14881247  0.75834115  0.77104315     0.29700
C922        C  0.12304280  0.75484210  0.78155048    -0.21100
C923        C  0.12221091  0.74247880  0.80128737    -0.09200
C924        C  0.14816044  0.73367387  0.81031052     0.29700
F925        F  0.14887289  0.72110447  0.82910115    -0.19700
H926        H  0.19346305  0.73023446  0.80720554     0.18100
H927        H  0.10370676  0.76219846  0.77415172     0.18100
F928        F  0.14821250  0.77052286  0.75209156    -0.19700
C929        C  0.85620988  0.76646843  0.76931167    -0.21100
C930        C  0.83154631  0.75327715  0.77705634    -0.09200
C931        C  0.83407093  0.73590174  0.79467881     0.29700
C932        C  0.86056428  0.73170051  0.80404831    -0.21100
C933        C  0.88527189  0.74474499  0.79629757    -0.09200
C934        C  0.88275966  0.76241161  0.77882379     0.29700
F935        F  0.90565771  0.77647044  0.77119302    -0.19700
H936        H  0.85495376  0.78020791  0.75593096     0.18100
H937        H  0.86165375  0.71779863  0.81732930     0.18100
F938        F  0.81105961  0.72256258  0.80284123    -0.22900
C939        C  0.75273082  0.66166268  0.72770583    -0.21100
C940        C  0.76428880  0.68666732  0.71917923    -0.09200
C941        C  0.77976398  0.68449394  0.70064063     0.29700
C942        C  0.78353489  0.65799234  0.69105504    -0.21100
C943        C  0.77211781  0.63296816  0.69962655    -0.09200
C944        C  0.75648188  0.63514421  0.71808879     0.29700
F945        F  0.74411111  0.61188893  0.72668618    -0.19700
H946        H  0.74055097  0.66258721  0.74184626     0.18100
H947        H  0.79588382  0.65710705  0.67700522     0.18100
F948        F  0.79160010  0.70785798  0.69176561    -0.19700
C949        C  0.64983790  0.76687666  0.73084402    -0.21100
C950        C  0.67480485  0.77354573  0.71992374    -0.09200
C951        C  0.67224995  0.78197977  0.69919449     0.29700
C952        C  0.64541551  0.78353800  0.68976615    -0.21100
C953        C  0.62038031  0.77677601  0.70065450    -0.09200
C954        C  0.62301804  0.76840813  0.72143977     0.29700
F955        F  0.59994478  0.76092609  0.73273819    -0.19700
H956        H  0.65100546  0.76022295  0.74678843     0.18100
H957        H  0.64440455  0.79025049  0.67385697     0.18100
F958        F  0.69564532  0.78834050  0.68783287    -0.19700
C959        C  0.83286697  0.29763944  0.79151186    -0.21100
C960        C  0.82972753  0.27499501  0.77752496    -0.09200
C961        C  0.85379705  0.25831943  0.77252533     0.29700
C962        C  0.88033688  0.26430295  0.78140469    -0.21100
C963        C  0.88344815  0.28697136  0.79540956    -0.09200
C964        C  0.85936846  0.30376440  0.80024461     0.29700
F965        F  0.86146973  0.32680408  0.81282171    -0.19700
H966        H  0.81486887  0.31120976  0.79531842     0.18100
H967        H  0.89839057  0.25087506  0.77752165     0.18100
F968        F  0.85166327  0.23597332  0.75930651    -0.19700
C969        C  0.76183227  0.39493385  0.71794237    -0.21100
C970        C  0.78476250  0.39679599  0.70408785    -0.09200
C971        C  0.80020350  0.37180184  0.69929988     0.29700
C972        C  0.79246693  0.34562727  0.70791455    -0.21100
C973        C  0.76948105  0.34374607  0.72167707    -0.09200
C974        C  0.75422656  0.36873958  0.72668461     0.29700
F975        F  0.73158323  0.36784592  0.73966043    -0.19700
H976        H  0.74936024  0.41369274  0.72177822     0.18100
H977        H  0.80490142  0.32682206  0.70406989     0.18100
F978        F  0.82332385  0.37260837  0.68678630    -0.19700
C979        C  0.67427454  0.25227867  0.69696354    -0.21100
C980        C  0.67512977  0.26123731  0.71760088    -0.09200
C981        C  0.64935350  0.26873794  0.72733050     0.29700
C982        C  0.62351752  0.26691470  0.71670129    -0.21100
C983        C  0.62249296  0.25755569  0.69613138    -0.09200
C984        C  0.64840163  0.25044814  0.68630103     0.29700
F985        F  0.64904623  0.24102892  0.66657997    -0.19700
H986        H  0.69373012  0.24649571  0.68899432     0.18100
H987        H  0.60426165  0.27296787  0.72476138     0.18100
F988        F  0.64887108  0.27756203  0.74723008    -0.19700
C989        C  0.74180032  0.13557488  0.77589591    -0.21100
C990        C  0.72997658  0.13408839  0.79576864    -0.09200
C991        C  0.72152404  0.15992405  0.80531985     0.29700
C992        C  0.72551907  0.18613446  0.79541357    -0.21100
C993        C  0.73781523  0.18751170  0.77575050    -0.09200
C994        C  0.74564164  0.16179002  0.76597807     0.29700
F995        F  0.75718378  0.16176943  0.74682849    -0.19700
H996        H  0.74847359  0.11645849  0.76788133     0.18100
H997        H  0.71904984  0.20548512  0.80330382     0.18100
F998        F  0.70925573  0.16036289  0.82418433    -0.19700
C999        C  0.73072648  0.87188274  0.80714735    -0.21100
C1000       C  0.74288715  0.89627008  0.79813147    -0.09200
C1001       C  0.75632060  0.89347532  0.77885964     0.29700
C1002       C  0.75738091  0.86697108  0.76893084    -0.21100
C1003       C  0.74521597  0.84254419  0.77791468    -0.09200
C1004       C  0.73178616  0.84533824  0.79721641     0.29700
F1005       F  0.71962291  0.82252360  0.80658435    -0.19700
H1006       H  0.72004438  0.87334653  0.82187495     0.18100
H1007       H  0.76813713  0.86557048  0.75421917     0.18100
F1008       F  0.76933896  0.91605072  0.76982240    -0.19700
loop_ 
_geom_bond_atom_site_label_1 
_geom_bond_atom_site_label_2 
_geom_bond_distance 
_geom_bond_site_symmetry_2 
_ccdc_geom_bond_type 
N1            N2   1.324       .  A
N1            C5   1.350   1_655  A
N1           Cu9   2.094   1_656  S
N2            C3   1.343       .  A
N2           Cu8   2.073       .  S
C3            C4   1.380       .  A
C3            H6   1.082       .  S
C4            C5   1.385   1_655  A
C4          C210   1.471       .  S
C5            H7   1.082       .  S
Cu8          N11   2.072       .  S
Cu9          N19   2.094   1_455  S
Cu10         N12   2.064       .  S
Cu10         N18   2.065       .  S
N11          N12   1.320   1_556  A
N11          C15   1.345       .  A
N12          C13   1.344       .  A
C13          C14   1.383       .  A
C13          H16   1.082       .  S
C14          C15   1.385   1_554  A
C14         C430   1.472       .  S
C15          H17   1.082       .  S
N18          N19   1.324       .  A
N18          C22   1.342       .  A
N19          C20   1.350   1_655  A
C20          C21   1.386   1_455  A
C20          H23   1.082       .  S
C21          C22   1.378       .  A
C21         C454   1.469       .  S
C22          H24   1.082       .  S
N25          N26   1.324       .  A
N25          C29   1.349       .  A
N25         Cu33   2.084       .  S
N26          C27   1.341       .  A
N26         Cu32   2.065       .  S
C27          C28   1.377       .  A
C27          H30   1.082       .  S
C28          C29   1.383       .  A
C28         C506   1.464       .  S
C29          H31   1.082   1_545  S
Cu32         N35   2.065       .  S
Cu33         N43   2.084   1_554  S
Cu34         N36   2.067       .  S
Cu34         N42   2.067       .  S
N35          N36   1.320   1_554  A
N35          C39   1.343       .  A
N36          C37   1.346       .  A
C37          C38   1.384       .  A
C37          H40   1.082       .  S
C38          C39   1.383   1_556  A
C38         C406   1.471       .  S
C39          H41   1.082       .  S
N42          N43   1.324       .  A
N42          C46   1.341       .  A
N43          C44   1.349       .  A
C44          C45   1.384       .  A
C44          H47   1.082   1_545  S
C45          C46   1.378       .  A
C45         C158   1.465       .  S
C46          H48   1.082       .  S
N49          N50   1.323       .  A
N49          C53   1.351       .  A
N49         Cu57   2.091       .  S
N50          C51   1.340       .  A
N50         Cu56   2.062       .  S
C51          C52   1.377       .  A
C51          H54   1.082       .  S
C52          C53   1.386       .  A
C52         C654   1.468       .  S
C53          H55   1.082       .  S
Cu56         N59   2.061       .  S
Cu57         N67   2.091       .  S
Cu58         N60   2.068       .  S
Cu58         N66   2.069       .  S
N59          N60   1.319       .  A
N59          C63   1.344       .  A
N60          C61   1.345       .  A
C61          C62   1.385       .  A
C61          H64   1.082       .  S
C62          C63   1.383       .  A
C62         C134   1.471   1_655  S
C63          H65   1.082       .  S
N66          N67   1.324       .  A
N66          C70   1.342       .  A
N67          C68   1.349       .  A
C68          C69   1.385       .  A
C68          H71   1.082       .  S
C69          C70   1.379       .  A
C69         C382   1.469       .  S
C70          H72   1.082       .  S
N73          N74   1.324       .  A
N73          C77   1.350       .  A
N73         Cu81   2.092       .  S
N74          C75   1.342       .  A
N74         Cu80   2.067       .  S
C75          C76   1.378       .  A
C75          H78   1.082       .  S
C76          C77   1.385       .  A
C76         C358   1.468       .  S
C77          H79   1.082       .  S
Cu80         N83   2.066       .  S
Cu81         N91   2.092       .  S
Cu82         N84   2.067       .  S
Cu82         N90   2.067       .  S
N83          N84   1.320       .  A
N83          C87   1.344       .  A
N84          C85   1.345       .  A
C85          C86   1.384       .  A
C85          H88   1.082       .  S
C86          C87   1.383       .  A
C86         C110   1.471   1_565  S
C87          H89   1.082       .  S
N90          N91   1.324       .  A
N90          C94   1.342       .  A
N91          C92   1.350       .  A
C92          C93   1.385       .  A
C92          H95   1.082       .  S
C93          C94   1.377       .  A
C93         C678   1.468       .  S
C94          H96   1.082       .  S
N97          N98   1.324       .  A
N97         C101   1.350       .  A
N97        Cu105   2.092       .  S
N98          C99   1.342       .  A
N98        Cu104   2.065       .  S
C99         C100   1.378       .  A
C99         H102   1.082       .  S
C100        C101   1.386       .  A
C100        C334   1.469       .  S
C101        H103   1.082       .  S
Cu104       N107   2.064       .  S
Cu105       N115   2.092       .  S
Cu106       N108   2.067       .  S
Cu106       N114   2.068       .  S
N107        N108   1.320       .  A
N107        C111   1.344       .  A
N108        C109   1.345       .  A
C109        C110   1.384       .  A
C109        H112   1.082       .  S
C110        C111   1.383       .  A
C111        H113   1.082       .  S
N114        N115   1.324       .  A
N114        C118   1.342       .  A
N115        C116   1.349       .  A
C116        C117   1.385       .  A
C116        H119   1.082       .  S
C117        C118   1.378       .  A
C117        C606   1.470       .  S
C118        H120   1.082       .  S
N121        N122   1.324       .  A
N121        C125   1.352       .  A
N121       Cu129   2.099       .  S
N122        C123   1.343       .  A
N122       Cu128   2.073       .  S
C123        C124   1.379       .  A
C123        H126   1.082       .  S
C124        C125   1.387       .  A
C124        C630   1.473       .  S
C125        H127   1.082       .  S
Cu128       N131   2.072       .  S
Cu129       N139   2.098       .  S
Cu130       N132   2.062       .  S
Cu130       N138   2.063       .  S
N131        N132   1.320       .  A
N131        C135   1.345       .  A
N132        C133   1.344       .  A
C133        C134   1.383       .  A
C133        H136   1.082       .  S
C134        C135   1.385       .  A
C135        H137   1.082       .  S
N138        N139   1.324       .  A
N138        C142   1.342       .  A
N139        C140   1.351       .  A
C140        C141   1.387       .  A
C140        H143   1.082       .  S
C141        C142   1.378       .  A
C141        C310   1.471       .  S
C142        H144   1.082       .  S
N145        N146   1.318       .  A
N145        C149   1.346       .  A
N145       Cu153   2.084       .  S
N146        C147   1.341       .  A
N146       Cu152   2.057       .  S
C147        C148   1.389       .  A
C147        H150   1.078       .  S
C148        C149   1.396       .  A
C148        C990   1.496       .  S
C149        H151   1.081       .  S
Cu152       N155   2.057       .  S
Cu153       N163   2.086   1_545  S
Cu154       N156   2.082   1_565  S
Cu154       N162   2.084       .  S
N155        N156   1.321       .  A
N155        C159   1.340       .  A
N156        C157   1.349   1_545  A
C157        C158   1.385   1_565  A
C157        H160   1.082       .  S
C158        C159   1.378       .  A
C159        H161   1.082       .  S
N162        N163   1.324       .  A
N162        C166   1.346       .  A
N163        C164   1.346       .  A
C164        C165   1.388       .  A
C164        H167   1.081       .  S
C165        C166   1.387       .  A
C165       C1000   1.488       .  S
C166        H168   1.082       .  S
O169       Cu177   2.009       .  S
O169        C179   1.279       .  A
O170       Cu177   2.007       .  S
O170        C180   1.278       .  A
O171       Cu177   2.016       .  S
O171        C181   1.280       .  A
O172       Cu177   2.010       .  S
O172        C182   1.278       .  A
O173       Cu178   2.003       .  S
O173        C182   1.278       .  A
O174       Cu178   2.006       .  S
O174        C181   1.277       .  A
O175       Cu178   2.015       .  S
O175        C180   1.279       .  A
O176       Cu178   2.012       .  S
O176        C179   1.278       .  A
Cu177      Cu178   2.368       .  S
C179        C960   1.482       .  S
C180        C980   1.486       .  S
C181        C993   1.487       .  S
C182        C973   1.480       .  S
O183       Cu191   2.024       .  S
O183        C193   1.280       .  A
O184       Cu191   2.021       .  S
O184        C194   1.280       .  A
O185       Cu191   2.007       .  S
O185        C195   1.277       .  A
O186       Cu191   2.008       .  S
O186        C196   1.278       .  A
O187       Cu192   2.019       .  S
O187        C196   1.279       .  A
O188       Cu192   2.019       .  S
O188        C195   1.280       .  A
O189       Cu192   2.007       .  S
O189        C194   1.278       .  A
O190       Cu192   2.010       .  S
O190        C193   1.278       .  A
Cu191      Cu192   2.366       .  S
C193        C950   1.490       .  S
C194        C930   1.488       .  S
C195        C940   1.488       .  S
C196       C1003   1.489       .  S
N197        N198   1.320       .  A
N197        C201   1.348       .  A
N197       Cu205   2.082   1_655  S
N198        C199   1.342       .  A
N198       Cu204   2.066       .  S
C199        C200   1.386       .  A
C199        H202   1.081       .  S
C200        C201   1.392       .  A
C200        C933   1.489       .  S
C201        H203   1.081       .  S
Cu204       N207   2.067       .  S
Cu205       N215   2.083       .  S
Cu206       N208   2.088       .  S
Cu206       N214   2.090       .  S
N207        N208   1.322   1_655  A
N207        C211   1.343       .  A
N208        C209   1.350       .  A
C209        C210   1.386   1_455  A
C209        H212   1.082       .  S
C210        C211   1.380       .  A
C211        H213   1.082       .  S
N214        N215   1.323       .  A
N214        C218   1.347       .  A
N215        C216   1.344       .  A
C216        C217   1.389       .  A
C216        H219   1.081       .  S
C217        C218   1.391       .  A
C217        C923   1.494       .  S
C218        H220   1.080       .  S
O221       Cu229   2.015       .  S
O221        C231   1.279       .  A
O222       Cu229   2.024       .  S
O222        C232   1.280       .  A
O223       Cu229   2.017       .  S
O223        C233   1.279       .  A
O224       Cu229   2.015       .  S
O224        C234   1.279       .  A
O225       Cu230   2.008       .  S
O225        C234   1.278       .  A
O226       Cu230   2.011       .  S
O226        C233   1.278       .  A
O227       Cu230   2.021       .  S
O227        C232   1.279       .  A
O228       Cu230   2.015       .  S
O228        C231   1.279       .  A
Cu229      Cu230   2.366       .  S
C231        C890   1.489       .  S
C232        C910   1.495       .  S
C233        C920   1.489       .  S
C234        C900   1.485       .  S
N235        N236   1.320       .  A
N235        C239   1.349       .  A
N235       Cu243   2.087   1_655  S
N236        C237   1.342       .  A
N236       Cu242   2.063       .  S
C237        C238   1.384       .  A
C237        H240   1.081       .  S
C238        C239   1.391       .  A
C238        C963   1.486       .  S
C239        H241   1.082       .  S
Cu242       N245   2.063       .  S
Cu243       N253   2.089       .  S
Cu244       N246   2.089       .  S
Cu244       N252   2.091       .  S
N245        N246   1.322   1_655  A
N245        C249   1.342       .  A
N246        C247   1.350       .  A
C247        C248   1.386   1_455  A
C247        H250   1.082       .  S
C248        C249   1.380       .  A
C248        C420   1.470       .  S
C249        H251   1.082       .  S
N252        N253   1.323       .  A
N252        C256   1.346       .  A
N253        C254   1.346       .  A
C254        C255   1.393       .  A
C254        H257   1.079       .  S
C255        C256   1.392       .  A
C255        C880   1.501       .  S
C256        H258   1.081       .  S
O259       Cu267   2.009       .  S
O259        C269   1.278       .  A
O260       Cu267   2.010       .  S
O260        C270   1.278       .  A
O261       Cu267   2.019       .  S
O261        C271   1.279       .  A
O262       Cu267   2.021       .  S
O262        C272   1.280       .  A
O263       Cu268   2.015       .  S
O263        C272   1.279       .  A
O264       Cu268   2.014       .  S
O264        C271   1.279       .  A
O265       Cu268   2.012       .  S
O265        C270   1.278       .  A
O266       Cu268   2.013       .  S
O266        C269   1.279       .  A
Cu267      Cu268   2.367       .  S
C269        C863   1.485       .  S
C270        C850   1.483       .  S
C271        C870   1.487       .  S
C272        C883   1.492       .  S
N273        N274   1.321       .  A
N273        C277   1.345       .  A
N273       Cu281   2.075   1_565  S
N274        C275   1.345       .  A
N274       Cu280   2.090       .  S
C275        C276   1.393       .  A
C275        H278   1.081       .  S
C276        C277   1.391       .  A
C276        C893   1.497       .  S
C277        H279   1.079       .  S
Cu280       N283   2.089       .  S
Cu281       N291   2.074       .  S
Cu282       N284   2.079       .  S
Cu282       N290   2.079       .  S
N283        N284   1.323   1_565  A
N283        C287   1.350       .  A
N284        C285   1.345       .  A
C285        C286   1.382       .  A
C285        H288   1.082       .  S
C286        C287   1.386   1_545  A
C286        C413   1.474       .  S
C287        H289   1.082       .  S
N290        N291   1.321       .  A
N290        C294   1.345       .  A
N291        C292   1.345       .  A
C292        C293   1.388       .  A
C292        H295   1.081       .  S
C293        C294   1.388       .  A
C293        C853   1.488       .  S
C294        H296   1.082       .  S
N297        N298   1.322       .  A
N297        C301   1.346       .  A
N297       Cu305   2.085       .  S
N298        C299   1.348       .  A
N298       Cu304   2.091       .  S
C299        C300   1.392       .  A
C299        H302   1.080       .  S
C300        C301   1.390       .  A
C300        C913   1.497       .  S
C301        H303   1.081       .  S
Cu304       N307   2.090       .  S
Cu305       N315   2.083       .  S
Cu306       N308   2.068       .  S
Cu306       N314   2.067       .  S
N307        N308   1.323       .  A
N307        C311   1.350       .  A
N308        C309   1.343       .  A
C309        C310   1.381       .  A
C309        H312   1.082       .  S
C310        C311   1.385       .  A
C311        H313   1.082       .  S
N314        N315   1.320       .  A
N314        C318   1.343       .  A
N315        C316   1.347       .  A
C316        C317   1.392       .  A
C316        H319   1.080       .  S
C317        C318   1.388       .  A
C317        C860   1.492       .  S
C318        H320   1.081       .  S
N321        N322   1.322       .  A
N321        C325   1.344       .  A
N321       Cu329   2.082       .  S
N322        C323   1.345       .  A
N322       Cu328   2.079       .  S
C323        C324   1.390       .  A
C323        H326   1.080       .  S
C324        C325   1.390       .  A
C324        C983   1.493       .  S
C325        H327   1.081       .  S
Cu328       N331   2.077       .  S
Cu329       N339   2.081       .  S
Cu330       N332   2.074       .  S
Cu330       N338   2.074       .  S
N331        N332   1.322       .  A
N331        C335   1.348       .  A
N332        C333   1.343       .  A
C333        C334   1.381       .  A
C333        H336   1.082       .  S
C334        C335   1.383       .  A
C335        H337   1.082       .  S
N338        N339   1.321       .  A
N338        C342   1.344       .  A
N339        C340   1.348       .  A
C340        C341   1.390       .  A
C340        H343   1.082       .  S
C341        C342   1.387       .  A
C341        C873   1.488       .  S
C342        H344   1.081       .  S
N345        N346   1.322       .  A
N345        C349   1.345       .  A
N345       Cu353   2.081       .  S
N346        C347   1.346       .  A
N346       Cu352   2.084       .  S
C347        C348   1.391       .  A
C347        H350   1.081       .  S
C348        C349   1.391       .  A
C348        C953   1.496       .  S
C349        H351   1.080       .  S
Cu352       N355   2.083       .  S
Cu353       N363   2.080       .  S
Cu354       N356   2.072       .  S
Cu354       N362   2.072       .  S
N355        N356   1.323       .  A
N355        C359   1.349       .  A
N356        C357   1.343       .  A
C357        C358   1.380       .  A
C357        H360   1.082       .  S
C358        C359   1.384       .  A
C359        H361   1.082       .  S
N362        N363   1.320       .  A
N362        C366   1.345       .  A
N363        C364   1.345       .  A
C364        C365   1.390       .  A
C364        H367   1.080       .  S
C365        C366   1.388       .  A
C365        C903   1.489       .  S
C366        H368   1.082       .  S
N369        N370   1.323       .  A
N369        C373   1.345       .  A
N369       Cu377   2.076       .  S
N370        C371   1.346       .  A
N370       Cu376   2.086       .  S
C371        C372   1.389       .  A
C371        H374   1.082       .  S
C372        C373   1.387       .  A
C372        C943   1.489       .  S
C373        H375   1.081       .  S
Cu376       N379   2.085       .  S
Cu377       N387   2.074       .  S
Cu378       N380   2.065       .  S
Cu378       N386   2.065       .  S
N379        N380   1.322       .  A
N379        C383   1.349       .  A
N380        C381   1.342       .  A
C381        C382   1.380       .  A
C381        H384   1.082       .  S
C382        C383   1.385       .  A
C383        H385   1.082       .  S
N386        N387   1.320       .  A
N386        C390   1.343       .  A
N387        C388   1.345       .  A
C388        C389   1.388       .  A
C388        H391   1.082       .  S
C389        C390   1.386       .  A
C389        C970   1.484       .  S
C390        H392   1.081       .  S
N393        N394   1.323       .  A
N393        C397   1.350       .  A
N393       Cu401   2.099       .  S
N394        C395   1.343       .  A
N394       Cu400   2.062       .  S
C395        C396   1.378       .  A
C395        H398   1.082       .  S
C396        C397   1.387       .  A
C396        C544   1.470       .  S
C397        H399   1.082   1_545  S
Cu400       N403   2.061       .  S
Cu401       N411   2.100   1_554  S
Cu402       N404   2.076       .  S
Cu402       N410   2.077       .  S
N403        N404   1.320   1_554  A
N403        C407   1.343       .  A
N404        C405   1.347       .  A
C405        C406   1.386       .  A
C405        H408   1.082       .  S
C406        C407   1.382   1_556  A
C407        H409   1.082       .  S
N410        N411   1.325       .  A
N410        C414   1.344       .  A
N411        C412   1.351       .  A
C412        C413   1.387       .  A
C412        H415   1.082   1_545  S
C413        C414   1.380       .  A
C414        H416   1.082       .  S
N417        N418   1.324       .  A
N417        C421   1.351   1_655  A
N417       Cu425   2.098       .  S
N418        C419   1.341       .  A
N418       Cu424   2.067       .  S
C419        C420   1.378       .  A
C419        H422   1.082       .  S
C420        C421   1.387   1_655  A
C421        H423   1.082       .  S
Cu424       N427   2.066       .  S
Cu425       N435   2.098   1_556  S
Cu426       N428   2.067       .  S
Cu426       N434   2.068       .  S
N427        N428   1.319   1_556  A
N427        C431   1.345       .  A
N428        C429   1.344       .  A
C429        C430   1.384       .  A
C429        H432   1.082       .  S
C430        C431   1.384   1_554  A
C431        H433   1.082       .  S
N434        N435   1.324       .  A
N434        C438   1.342       .  A
N435        C436   1.351   1_655  A
C436        C437   1.387   1_455  A
C436        H439   1.082       .  S
C437        C438   1.378       .  A
C437        C568   1.470       .  S
C438        H440   1.082       .  S
N441        N442   1.320       .  A
N441        C445   1.347       .  A
N441       Cu449   2.076   1_655  S
N442        C443   1.344       .  A
N442       Cu448   2.077       .  S
C443        C444   1.390       .  A
C443        H446   1.082       .  S
C444        C445   1.390       .  A
C444        C840   1.492       .  S
C445        H447   1.082       .  S
Cu448       N451   2.077       .  S
Cu449       N459   2.076       .  S
Cu450       N452   2.077       .  S
Cu450       N458   2.078       .  S
N451        N452   1.323   1_655  A
N451        C455   1.343       .  A
N452        C453   1.349       .  A
C453        C454   1.384   1_455  A
C453        H456   1.082       .  S
C454        C455   1.381       .  A
C455        H457   1.082       .  S
N458        N459   1.322       .  A
N458        C462   1.345       .  A
N459        C460   1.344       .  A
C460        C461   1.388       .  A
C460        H463   1.080       .  S
C461        C462   1.388       .  A
C461        C830   1.487       .  S
C462        H464   1.081       .  S
O465       Cu473   2.021       .  S
O465        C475   1.280       .  A
O466       Cu473   2.012       .  S
O466        C476   1.279       .  A
O467       Cu473   2.016       .  S
O467        C477   1.278       .  A
O468       Cu473   2.016       .  S
O468        C478   1.279       .  A
O469       Cu474   2.003       .  S
O469        C478   1.278       .  A
O470       Cu474   2.003       .  S
O470        C477   1.278       .  A
O471       Cu474   2.014       .  S
O471        C476   1.278       .  A
O472       Cu474   2.010       .  S
O472        C475   1.278       .  A
Cu473      Cu474   2.368       .  S
C475        C820   1.490       .  S
C476        C800   1.487       .  S
C477        C810   1.479       .  S
C478        C833   1.486       .  S
O479       Cu487   2.015       .  S
O479        C489   1.279       .  A
O480       Cu487   2.016       .  S
O480        C490   1.279       .  A
O481       Cu487   2.026       .  S
O481        C491   1.280       .  A
O482       Cu487   2.023       .  S
O482        C492   1.280       .  A
O483       Cu488   2.008       .  S
O483        C492   1.278       .  A
O484       Cu488   2.008       .  S
O484        C491   1.278       .  A
O485       Cu488   2.016       .  S
O485        C490   1.279       .  A
O486       Cu488   2.017       .  S
O486        C489   1.279       .  A
Cu487      Cu488   2.366       .  S
C489        C770   1.490       .  S
C490        C790   1.491       .  S
C491        C843   1.490       .  S
C492        C783   1.490       .  S
N493        N494   1.321       .  A
N493        C497   1.346       .  A
N493       Cu501   2.083       .  S
N494        C495   1.345       .  A
N494       Cu500   2.070       .  S
C495        C496   1.388       .  A
C495        H498   1.081       .  S
C496        C497   1.390       .  A
C496        C760   1.489       .  S
C497        H499   1.081       .  S
Cu500       N503   2.070       .  S
Cu501       N511   2.084   1_545  S
Cu502       N504   2.075   1_565  S
Cu502       N510   2.076       .  S
N503        N504   1.322       .  A
N503        C507   1.342       .  A
N504        C505   1.348   1_545  A
C505        C506   1.382   1_565  A
C505        H508   1.082       .  S
C506        C507   1.380       .  A
C507        H509   1.082       .  S
N510        N511   1.323       .  A
N510        C514   1.345       .  A
N511        C512   1.347       .  A
C512        C513   1.388       .  A
C512        H515   1.081       .  S
C513        C514   1.386       .  A
C513        C773   1.486       .  S
C514        H516   1.082       .  S
O517       Cu525   2.020       .  S
O517        C527   1.279       .  A
O518       Cu525   2.024       .  S
O518        C528   1.280       .  A
O519       Cu525   2.017       .  S
O519        C529   1.279       .  A
O520       Cu525   2.016       .  S
O520        C530   1.279       .  A
O521       Cu526   2.007       .  S
O521        C530   1.278       .  A
O522       Cu526   2.011       .  S
O522        C529   1.279       .  A
O523       Cu526   2.004       .  S
O523        C528   1.278       .  A
O524       Cu526   2.004       .  S
O524        C527   1.278       .  A
Cu525      Cu526   2.367       .  S
C527        C730   1.486       .  S
C528        C753   1.489       .  S
C529        C763   1.489       .  S
C530        C740   1.485       .  S
N531        N532   1.322       .  A
N531        C535   1.345       .  A
N531       Cu539   2.076   1_565  S
N532        C533   1.345       .  A
N532       Cu538   2.079       .  S
C533        C534   1.388       .  A
C533        H536   1.081       .  S
C534        C535   1.387       .  A
C534        C803   1.487       .  S
C535        H537   1.082       .  S
Cu538       N541   2.078       .  S
Cu539       N549   2.076       .  S
Cu540       N542   2.076       .  S
Cu540       N548   2.076       .  S
N541        N542   1.323   1_565  A
N541        C545   1.348       .  A
N542        C543   1.345       .  A
C543        C544   1.383       .  A
C543        H546   1.082       .  S
C544        C545   1.383   1_545  A
C545        H547   1.082       .  S
N548        N549   1.321       .  A
N548        C552   1.344       .  A
N549        C550   1.346       .  A
C550        C551   1.389       .  A
C550        H553   1.081       .  S
C551        C552   1.387       .  A
C551        C720   1.487       .  S
C552        H554   1.082       .  S
N555        N556   1.321       .  A
N555        C559   1.348       .  A
N555       Cu563   2.082       .  S
N556        C557   1.343       .  A
N556       Cu562   2.073       .  S
C557        C558   1.388       .  A
C557        H560   1.081       .  S
C558        C559   1.390       .  A
C558        C733   1.489       .  S
C559        H561   1.082       .  S
Cu562       N565   2.073       .  S
Cu563       N573   2.083   1_655  S
Cu564       N566   2.082       .  S
Cu564       N572   2.083       .  S
N565        N566   1.322   1_655  A
N565        C569   1.344       .  A
N566        C567   1.349       .  A
C567        C568   1.384   1_455  A
C567        H570   1.082       .  S
C568        C569   1.382       .  A
C569        H571   1.082       .  S
N572        N573   1.323       .  A
N572        C576   1.346       .  A
N573        C574   1.346       .  A
C574        C575   1.388       .  A
C574        H577   1.081       .  S
C575        C576   1.387       .  A
C575        C710   1.489       .  S
C576        H578   1.082       .  S
O579       Cu587   2.009       .  S
O579        C589   1.278       .  A
O580       Cu587   2.005       .  S
O580        C590   1.278       .  A
O581       Cu587   2.010       .  S
O581        C591   1.279       .  A
O582       Cu587   2.011       .  S
O582        C592   1.279       .  A
O583       Cu588   2.020       .  S
O583        C592   1.279       .  A
O584       Cu588   2.025       .  S
O584        C591   1.280       .  A
O585       Cu588   2.016       .  S
O585        C590   1.279       .  A
O586       Cu588   2.016       .  S
O586        C589   1.279       .  A
Cu587      Cu588   2.367       .  S
C589        C700   1.488       .  S
C590        C723   1.484       .  S
C591        C693   1.490       .  S
C592        C713   1.489       .  S
N593        N594   1.320       .  A
N593        C597   1.348       .  A
N593       Cu601   2.085       .  S
N594        C595   1.344       .  A
N594       Cu600   2.075       .  S
C595        C596   1.391       .  A
C595        H598   1.080       .  S
C596        C597   1.393       .  A
C596        C690   1.497       .  S
C597        H599   1.081       .  S
Cu600       N603   2.075       .  S
Cu601       N611   2.086       .  S
Cu602       N604   2.076       .  S
Cu602       N610   2.078       .  S
N603        N604   1.322       .  A
N603        C607   1.343       .  A
N604        C605   1.348       .  A
C605        C606   1.384       .  A
C605        H608   1.082       .  S
C606        C607   1.382       .  A
C607        H609   1.082       .  S
N610        N611   1.323       .  A
N610        C614   1.345       .  A
N611        C612   1.345       .  A
C612        C613   1.389       .  A
C612        H615   1.081       .  S
C613        C614   1.387       .  A
C613        C750   1.489       .  S
C614        H616   1.082       .  S
N617        N618   1.323       .  A
N617        C621   1.345       .  A
N617       Cu625   2.074       .  S
N618        C619   1.347       .  A
N618       Cu624   2.093       .  S
C619        C620   1.390       .  A
C619        H622   1.082       .  S
C620        C621   1.386       .  A
C620        C823   1.489       .  S
C621        H623   1.081       .  S
Cu624       N627   2.092       .  S
Cu625       N635   2.073       .  S
Cu626       N628   2.074       .  S
Cu626       N634   2.074       .  S
N627        N628   1.323       .  A
N627        C631   1.351       .  A
N628        C629   1.343       .  A
C629        C630   1.380       .  A
C629        H632   1.082       .  S
C630        C631   1.387       .  A
C631        H633   1.082       .  S
N634        N635   1.319       .  A
N634        C638   1.344       .  A
N635        C636   1.345       .  A
C636        C637   1.392       .  A
C636        H639   1.080       .  S
C637        C638   1.391       .  A
C637        C703   1.494       .  S
C638        H640   1.081       .  S
N641        N642   1.323       .  A
N641        C645   1.347       .  A
N641       Cu649   2.090       .  S
N642        C643   1.345       .  A
N642       Cu648   2.082       .  S
C643        C644   1.387       .  A
C643        H646   1.082       .  S
C644        C645   1.390       .  A
C644        C793   1.491       .  S
C645        H647   1.081       .  S
Cu648       N651   2.081       .  S
Cu649       N659   2.088       .  S
Cu650       N652   2.065       .  S
Cu650       N658   2.065       .  S
N651        N652   1.321       .  A
N651        C655   1.349       .  A
N652        C653   1.342       .  A
C653        C654   1.380       .  A
C653        H656   1.082       .  S
C654        C655   1.385       .  A
C655        H657   1.082       .  S
N658        N659   1.321       .  A
N658        C662   1.343       .  A
N659        C660   1.347       .  A
C660        C661   1.391       .  A
C660        H663   1.082       .  S
C661        C662   1.385       .  A
C661        C743   1.488       .  S
C662        H664   1.081       .  S
N665        N666   1.321       .  A
N665        C669   1.347       .  A
N665       Cu673   2.082       .  S
N666        C667   1.343       .  A
N666       Cu672   2.070       .  S
C667        C668   1.388       .  A
C667        H670   1.080       .  S
C668        C669   1.390       .  A
C668        C813   1.489       .  S
C669        H671   1.082       .  S
Cu672       N675   2.070       .  S
Cu673       N683   2.084       .  S
Cu674       N676   2.081       .  S
Cu674       N682   2.082       .  S
N675        N676   1.322       .  A
N675        C679   1.343       .  A
N676        C677   1.348       .  A
C677        C678   1.384       .  A
C677        H680   1.082       .  S
C678        C679   1.381       .  A
C679        H681   1.082       .  S
N682        N683   1.323       .  A
N682        C686   1.345       .  A
N683        C684   1.346       .  A
C684        C685   1.389       .  A
C684        H687   1.081       .  S
C685        C686   1.388       .  A
C685        C780   1.490       .  S
C686        H688   1.082       .  S
C689        C690   1.409       .  A
C689        C694   1.403       .  A
C689        H696   1.082       .  S
C690        C691   1.412       .  A
C691        C692   1.398       .  A
C691        F698   1.355       .  S
C692        C693   1.405       .  A
C692        H697   1.083       .  S
C693        C694   1.409       .  A
C694        F695   1.357       .  S
C699        C700   1.405       .  A
C699        C704   1.401       .  A
C699        H706   1.083       .  S
C700        C701   1.409       .  A
C701        C702   1.398       .  A
C701        F708   1.357       .  S
C702        C703   1.407       .  A
C702        H707   1.081       .  S
C703        C704   1.412       .  A
C704        F705   1.355       .  S
C709        C710   1.406       .  A
C709        C714   1.401       .  A
C709        H716   1.082       .  S
C710        C711   1.408       .  A
C711        C712   1.399       .  A
C711        F718   1.357       .  S
C712        C713   1.407       .  A
C712        H717   1.083       .  S
C713        C714   1.410       .  A
C714        F715   1.357       .  S
C719        C720   1.407       .  A
C719        C724   1.399       .  A
C719        H726   1.082       .  S
C720        C721   1.409       .  A
C721        C722   1.399       .  A
C721        F728   1.356       .  S
C722        C723   1.406       .  A
C722        H727   1.083       .  S
C723        C724   1.408       .  A
C724        F725   1.357       .  S
C729        C730   1.405       .  A
C729        C734   1.396       .  A
C729        H736   1.083       .  S
C730        C731   1.409       .  A
C731        C732   1.403       .  A
C731        F738   1.357       .  S
C732        C733   1.407       .  A
C732        H737   1.082       .  S
C733        C734   1.409       .  A
C734        F735   1.356       .  S
C739        C740   1.405       .  A
C739        C744   1.399       .  A
C739        H746   1.083       .  S
C740        C741   1.409       .  A
C741        C742   1.399       .  A
C741        F748   1.357       .  S
C742        C743   1.405       .  A
C742        H747   1.082       .  S
C743        C744   1.410       .  A
C744        F745   1.357       .  S
C749        C750   1.407       .  A
C749        C754   1.401       .  A
C749        H756   1.082       .  S
C750        C751   1.408       .  A
C751        C752   1.398       .  A
C751        F758   1.356       .  S
C752        C753   1.407       .  A
C752        H757   1.083       .  S
C753        C754   1.409       .  A
C754        F755   1.357       .  S
C759        C760   1.406       .  A
C759        C764   1.400       .  A
C759        H766   1.082       .  S
C760        C761   1.409       .  A
C761        C762   1.400       .  A
C761        F768   1.357       .  S
C762        C763   1.407       .  A
C762        H767   1.083       .  S
C763        C764   1.409       .  A
C764        F765   1.357       .  S
C769        C770   1.408       .  A
C769        C774   1.401       .  A
C769        H776   1.083       .  S
C770        C771   1.410       .  A
C771        C772   1.399       .  A
C771        F778   1.357       .  S
C772        C773   1.405       .  A
C772        H777   1.083       .  S
C773        C774   1.408       .  A
C774        F775   1.357       .  S
C779        C780   1.407       .  A
C779        C784   1.401       .  A
C779        H786   1.082       .  S
C780        C781   1.409       .  A
C781        C782   1.400       .  A
C781        F788   1.357       .  S
C782        C783   1.407       .  A
C782        H787   1.083       .  S
C783        C784   1.409       .  A
C784        F785   1.357       .  S
C789        C790   1.407       .  A
C789        C794   1.401       .  A
C789        H796   1.083       .  S
C790        C791   1.410       .  A
C791        C792   1.400       .  A
C791        F798   1.357       .  S
C792        C793   1.407       .  A
C792        H797   1.082       .  S
C793        C794   1.409       .  A
C794        F795   1.356       .  S
C799        C800   1.406       .  A
C799        C804   1.398       .  A
C799        H806   1.083       .  S
C800        C801   1.410       .  A
C801        C802   1.400       .  A
C801        F808   1.357       .  S
C802        C803   1.406       .  A
C802        H807   1.083       .  S
C803        C804   1.409       .  A
C804        F805   1.356       .  S
C809        C810   1.402       .  A
C809        C814   1.396       .  A
C809        H816   1.083       .  S
C810        C811   1.407       .  A
C811        C812   1.402       .  A
C811        F818   1.358       .  S
C812        C813   1.408       .  A
C812        H817   1.082       .  S
C813        C814   1.411       .  A
C814        F815   1.356       .  S
C819        C820   1.407       .  A
C819        C824   1.402       .  A
C819        H826   1.083       .  S
C820        C821   1.410       .  A
C821        C822   1.398       .  A
C821        F828   1.357       .  S
C822        C823   1.404       .  A
C822        H827   1.082       .  S
C823        C824   1.410       .  A
C824        F825   1.357       .  S
C829        C830   1.406       .  A
C829        C834   1.399       .  A
C829        H836   1.082       .  S
C830        C831   1.409       .  A
C831        C832   1.397       .  A
C831        F838   1.356       .  S
C832        C833   1.406       .  A
C832        H837   1.083       .  S
C833        C834   1.409       .  A
C834        F835   1.357       .  S
C839        C840   1.405       .  A
C839        C844   1.397       .  A
C839        H846   1.083       .  S
C840        C841   1.411       .  A
C841        C842   1.403       .  A
C841        F848   1.356       .  S
C842        C843   1.407       .  A
C842        H847   1.084       .  S
C843        C844   1.409       .  A
C844        F845   1.357       .  S
C849        C850   1.405       .  A
C849        C854   1.400       .  A
C849        H856   1.083       .  S
C850        C851   1.408       .  A
C851        C852   1.398       .  A
C851        F858   1.357       .  S
C852        C853   1.406       .  A
C852        H857   1.082       .  S
C853        C854   1.410       .  A
C854        F855   1.356       .  S
C859        C860   1.408       .  A
C859        C864   1.398       .  A
C859        H866   1.081       .  S
C860        C861   1.410       .  A
C861        C862   1.400       .  A
C861        F868   1.356       .  S
C862        C863   1.406       .  A
C862        H867   1.083       .  S
C863        C864   1.407       .  A
C864        F865   1.358       .  S
C869        C870   1.405       .  A
C869        C874   1.399       .  A
C869        H876   1.083       .  S
C870        C871   1.409       .  A
C871        C872   1.402       .  A
C871        F878   1.357       .  S
C872        C873   1.406       .  A
C872        H877   1.083       .  S
C873        C874   1.409       .  A
C874        F875   1.357       .  S
C879        C880   1.410       .  A
C879        C884   1.402       .  A
C879        H886   1.081       .  S
C880        C881   1.413       .  A
C881        C882   1.401       .  A
C881        F888   1.355       .  S
C882        C883   1.405       .  A
C882        H887   1.083       .  S
C883        C884   1.408       .  A
C884        F885   1.357       .  S
C889        C890   1.406       .  A
C889        C894   1.401       .  A
C889        H896   1.083       .  S
C890        C891   1.408       .  A
C891        C892   1.399       .  A
C891        F898   1.357       .  S
C892        C893   1.408       .  A
C892        H897   1.081       .  S
C893        C894   1.413       .  A
C894        F895   1.355       .  S
C899        C900   1.405       .  A
C899        C904   1.398       .  A
C899        H906   1.083       .  S
C900        C901   1.409       .  A
C901        C902   1.401       .  A
C901        F908   1.358       .  S
C902        C903   1.407       .  A
C902        H907   1.082       .  S
C903        C904   1.409       .  A
C904        F905   1.356       .  S
C909        C910   1.407       .  A
C909        C914   1.403       .  A
C909        H916   1.083       .  S
C910        C911   1.410       .  A
C911        C912   1.402       .  A
C911        F918   1.357       .  S
C912        C913   1.408       .  A
C912        H917   1.082       .  S
C913        C914   1.411       .  A
C914        F915   1.356       .  S
C919        C920   1.407       .  A
C919        C924   1.401       .  A
C919        H926   1.083       .  S
C920        C921   1.408       .  A
C921        C922   1.399       .  A
C921        F928   1.357       .  S
C922        C923   1.408       .  A
C922        H927   1.081       .  S
C923        C924   1.411       .  A
C924        F925   1.356       .  S
C929        C930   1.407       .  A
C929        C934   1.402       .  A
C929        H936   1.083       .  S
C930        C931   1.409       .  A
C931        C932   1.397       .  A
C931        F938   1.357       .  S
C932        C933   1.406       .  A
C932        H937   1.082       .  S
C933        C934   1.409       .  A
C934        F935   1.356       .  S
C939        C940   1.406       .  A
C939        C944   1.400       .  A
C939        H946   1.083       .  S
C940        C941   1.410       .  A
C941        C942   1.399       .  A
C941        F948   1.357       .  S
C942        C943   1.405       .  A
C942        H947   1.082       .  S
C943        C944   1.410       .  A
C944        F945   1.356       .  S
C949        C950   1.406       .  A
C949        C954   1.400       .  A
C949        H956   1.083       .  S
C950        C951   1.408       .  A
C951        C952   1.401       .  A
C951        F958   1.357       .  S
C952        C953   1.409       .  A
C952        H957   1.081       .  S
C953        C954   1.411       .  A
C954        F955   1.356       .  S
C959        C960   1.404       .  A
C959        C964   1.397       .  A
C959        H966   1.083       .  S
C960        C961   1.408       .  A
C961        C962   1.401       .  A
C961        F968   1.357       .  S
C962        C963   1.406       .  A
C962        H967   1.083       .  S
C963        C964   1.409       .  A
C964        F965   1.357       .  S
C969        C970   1.406       .  A
C969        C974   1.399       .  A
C969        H976   1.082       .  S
C970        C971   1.408       .  A
C971        C972   1.396       .  A
C971        F978   1.357       .  S
C972        C973   1.404       .  A
C972        H977   1.083       .  S
C973        C974   1.407       .  A
C974        F975   1.357       .  S
C979        C980   1.405       .  A
C979        C984   1.400       .  A
C979        H986   1.083       .  S
C980        C981   1.408       .  A
C981        C982   1.398       .  A
C981        F988   1.357       .  S
C982        C983   1.407       .  A
C982        H987   1.081       .  S
C983        C984   1.412       .  A
C984        F985   1.355       .  S
C989        C990   1.407       .  A
C989        C994   1.398       .  A
C989        H996   1.081       .  S
C990        C991   1.415       .  A
C991        C992   1.399       .  A
C991        F998   1.354       .  S
C992        C993   1.404       .  A
C992        H997   1.083       .  S
C993        C994   1.409       .  A
C994        F995   1.357       .  S
C999       C1000   1.406       .  A
C999       C1004   1.401       .  A
C999       H1006   1.082       .  S
C1000      C1001   1.408       .  A
C1001      C1002   1.399       .  A
C1001      F1008   1.357       .  S
C1002      C1003   1.407       .  A
C1002      H1007   1.083       .  S
C1003      C1004   1.410       .  A
C1004      F1005   1.357       .  S
