geometry optimzed in LAMMPS
_audit_creation_date              2020-11-30 
_audit_creation_method            'lammps2cif' 
_symmetry_space_group_name_H-M    'P1' 
_symmetry_Int_Tables_number       1 
_symmetry_cell_setting            triclinic 
loop_ 
_symmetry_equiv_pos_as_xyz 
  x,y,z 
_cell_length_a                    21.665192943743264 
_cell_length_b                    24.763002706357675 
_cell_length_c                    45.489660793295336 
_cell_angle_alpha                 90.3471484486558 
_cell_angle_beta                  89.99470944674967 
_cell_angle_gamma                 90.11394767528519 
loop_ 
_atom_site_label 
_atom_site_type_symbol 
_atom_site_fract_x 
_atom_site_fract_y 
_atom_site_fract_z 
_atom_site_charge 
O1          O  0.82432284  0.37755716  0.29910525    -0.81050
O2          O  0.83118315  0.40499056  0.19503593    -0.81070
O3          O  0.83343147  0.28782907  0.26802312    -0.81080
O4          O  0.71214204  0.48377728  0.22755554    -0.81020
O5          O  0.87663473  0.34312491  0.23878458    -0.81150
O6          O  0.78478601  0.47876347  0.26299727    -0.81070
O7          O  0.73782454  0.42350462  0.17932243    -0.81050
O8          O  0.77411758  0.30440500  0.31503335    -0.81090
C9          C  0.81854531  0.33804030  0.31820951     1.08640
C10         C  0.79594705  0.42691241  0.17645120     1.08520
C11         C  0.88184176  0.30434423  0.25598009     1.08660
C12         C  0.75333702  0.50593178  0.24423201     1.08540
O13         O  0.66568051  0.45395630  0.27309490    -0.81050
O14         O  0.77855696  0.26015499  0.22470157    -0.81130
O15         O  0.68117717  0.36341485  0.30171201    -0.81060
O16         O  0.65769156  0.33801255  0.19913135    -0.81040
O17         O  0.74684026  0.32087414  0.17853709    -0.81100
O18         O  0.73258292  0.43636948  0.31732551    -0.81060
O19         O  0.61864389  0.39939163  0.24437892    -0.81020
O20         O  0.71155143  0.26554937  0.26241822    -0.81090
Co21       Co  0.74645217  0.41250701  0.27893693     1.51530
Co22       Co  0.80607138  0.33499726  0.21160150     1.51690
Co23       Co  0.75456975  0.32997704  0.27782861     1.51570
Co24       Co  0.68423334  0.40859356  0.21462755     1.51470
O25         O  0.74779331  0.37219469  0.23999292    -1.42980
C26         C  0.61587421  0.43817422  0.26193063     1.08570
C27         C  0.73900195  0.23831749  0.24222667     1.08660
C28         C  0.69216518  0.39976162  0.32223185     1.08590
C29         C  0.68861952  0.31664412  0.17862077     1.08570
O30         O  0.71431840  0.98478216  0.22596252    -0.81050
O31         O  0.83326436  0.78627220  0.26898382    -0.81070
O32         O  0.82381533  0.88057454  0.29845974    -0.81080
O33         O  0.83499443  0.90024792  0.19554977    -0.81020
O34         O  0.77534202  0.80769510  0.31637127    -0.81150
O35         O  0.74375284  0.92376155  0.17918961    -0.81070
O36         O  0.87515305  0.84034037  0.23878128    -0.81050
O37         O  0.78686668  0.97936606  0.26132445    -0.81090
C38         C  0.75598318  0.00635868  0.24243012     1.08640
C39         C  0.88072158  0.80141282  0.25554727     1.08520
C40         C  0.81622879  0.84473593  0.31940064     1.08660
C41         C  0.80227202  0.92662397  0.17790241     1.08540
O42         O  0.65997954  0.83896463  0.19847803    -0.81050
O43         O  0.68260273  0.86746071  0.30151690    -0.81130
O44         O  0.66561488  0.95583457  0.27086721    -0.81060
O45         O  0.77507258  0.75832684  0.22542778    -0.81040
O46         O  0.71111512  0.76619592  0.26444448    -0.81100
O47         O  0.62029706  0.90024050  0.24238156    -0.81060
O48         O  0.74773862  0.81984399  0.17766223    -0.81020
O49         O  0.73383322  0.94184599  0.31508301    -0.81090
Co50       Co  0.68710375  0.90921145  0.21349318     1.51530
Co51       Co  0.75566022  0.83087653  0.27837257     1.51690
Co52       Co  0.74683247  0.91457172  0.27759407     1.51570
Co53       Co  0.80572109  0.83205841  0.21161728     1.51470
O54         O  0.74854850  0.87159740  0.23962105    -1.42980
C55         C  0.68941520  0.81907189  0.17723150     1.08570
C56         C  0.69258090  0.90651437  0.32069581     1.08660
C57         C  0.61610365  0.93913824  0.25967274     1.08590
C58         C  0.73615630  0.73818395  0.24384273     1.08570
O59         O  0.21934337  0.24037740  0.22719374    -0.81050
O60         O  0.34143781  0.04961835  0.27447580    -0.81070
O61         O  0.32200321  0.14154182  0.30236102    -0.81080
O62         O  0.34366050  0.16232378  0.20056222    -0.81020
O63         O  0.27542920  0.06817137  0.32020775    -0.81150
O64         O  0.25483670  0.18078681  0.18019015    -0.81070
O65         O  0.38453502  0.10447609  0.24512674    -0.81050
O66         O  0.28523284  0.23625605  0.26537549    -0.81090
C67         C  0.25670033  0.26288127  0.24560085     1.08640
C68         C  0.39007733  0.06656253  0.26263156     1.08520
C69         C  0.31588013  0.10559981  0.32315216     1.08660
C70         C  0.31317018  0.18308506  0.17991760     1.08540
O71         O  0.17168431  0.09545471  0.19488601    -0.81050
O72         O  0.17818783  0.11915036  0.30006707    -0.81130
O73         O  0.16393224  0.20932387  0.26991725    -0.81060
O74         O  0.29214055  0.01626507  0.22984310    -0.81040
O75         O  0.22147437  0.02201702  0.26633798    -0.81100
O76         O  0.12399303  0.15385657  0.23929723    -0.81060
O77         O  0.26572838  0.07577669  0.18039330    -0.81020
O78         O  0.22206342  0.19431221  0.31767307    -0.81090
Co79       Co  0.19515092  0.16494202  0.21288508     1.51530
Co80       Co  0.25876767  0.08903543  0.28102202     1.51690
Co81       Co  0.24491571  0.17037711  0.27983037     1.51570
Co82       Co  0.31839975  0.09187589  0.21608648     1.51470
O83         O  0.25403573  0.12810330  0.24154396    -1.42980
C84         C  0.20788979  0.07508228  0.17617343     1.08570
C85         C  0.17988398  0.15820302  0.31955188     1.08660
C86         C  0.11686645  0.19201787  0.25687762     1.08590
C87         C  0.25180872  0.99487805  0.24723157     1.08570
O88         O  0.28615357  0.51633098  0.22538367    -0.81050
O89         O  0.16620552  0.70877453  0.27026302    -0.81070
O90         O  0.17942016  0.61897780  0.29971447    -0.81080
O91         O  0.17129623  0.59547557  0.19648389    -0.81020
O92         O  0.22651459  0.69283030  0.31710147    -0.81150
O93         O  0.26176367  0.57872158  0.17759691    -0.81070
O94         O  0.12511868  0.65493737  0.23949968    -0.81050
O95         O  0.21681438  0.52186356  0.26236999    -0.81090
C96         C  0.24511200  0.49498739  0.24223420     1.08640
C97         C  0.11859842  0.69299575  0.25719794     1.08520
C98         C  0.18401606  0.65720378  0.31969236     1.08660
C99         C  0.20338834  0.57791016  0.17561817     1.08540
O100        O  0.34576927  0.66063882  0.19864493    -0.81050
O101        O  0.32343623  0.63725183  0.30023257    -0.81130
O102        O  0.33637052  0.54373577  0.27125930    -0.81060
O103        O  0.22046133  0.74008076  0.22699429    -0.81040
O104        O  0.28737125  0.73500789  0.26453325    -0.81100
O105        O  0.38384820  0.59712934  0.24248921    -0.81060
O106        O  0.25607189  0.68175613  0.18019886    -0.81020
O107        O  0.27471499  0.56394662  0.31725686    -0.81090
Co108      Co  0.31649025  0.59069334  0.21331962     1.51530
Co109      Co  0.24689075  0.66897502  0.27893400     1.51690
Co110      Co  0.25725162  0.58668036  0.27874577     1.51570
Co111      Co  0.19566402  0.66541569  0.21287795     1.51470
O112        O  0.25476050  0.62821323  0.24026863    -1.42980
C113        C  0.31455497  0.68398804  0.17916038     1.08570
C114        C  0.31721631  0.59981091  0.32022709     1.08660
C115        C  0.38622705  0.55858309  0.25993726     1.08590
C116        C  0.25905889  0.76224386  0.24488775     1.08570
O117        O  0.47953850  0.17963801  0.06377327    -0.81050
O118        O  0.49855930  0.30612067  0.92888880    -0.81070
O119        O  0.46510467  0.35624628  0.01341342    -0.81080
O120        O  0.37097588  0.22582607  0.99302284    -0.81020
O121        O  0.53432282  0.36313859  0.97663634    -0.81150
O122        O  0.41364950  0.16628221  0.01914254    -0.81070
O123        O  0.41076077  0.28806965  0.95021530    -0.81050
O124        O  0.43056793  0.25509965  0.05082736    -0.81090
C125        C  0.44002074  0.21607140  0.06991691     1.08640
C126        C  0.44018750  0.30922586  0.92937065     1.08520
C127        C  0.49478419  0.38427525  0.99440923     1.08660
C128        C  0.36485699  0.18526073  0.00867142     1.08540
O129        O  0.53480416  0.14329584  0.00967019    -0.81050
O130        O  0.62926945  0.27788378  0.98827796    -0.81130
O131        O  0.52247670  0.31520448  0.06542854    -0.81060
O132        O  0.48776608  0.20233149  0.92744345    -0.81040
O133        O  0.58213365  0.22000662  0.94245203    -0.81100
O134        O  0.57068176  0.24060018  0.04961324    -0.81060
O135        O  0.46256678  0.13910745  0.97393537    -0.81020
O136        O  0.58587472  0.32993878  0.01988801    -0.81090
Co137      Co  0.49483525  0.20728943  0.02682697     1.51530
Co138      Co  0.55866746  0.28887895  0.96136904     1.51690
Co139      Co  0.50529408  0.29000878  0.02786039     1.51570
Co140      Co  0.43555712  0.21601406  0.96315121     1.51470
O141        O  0.49970500  0.25001999  0.98907418    -1.42980
C142        C  0.50416421  0.11679434  0.99019863     1.08570
C143        C  0.63419821  0.31406457  0.00738509     1.08660
C144        C  0.56191030  0.27789662  0.06996097     1.08590
C145        C  0.54562209  0.19952679  0.92376211     1.08570
O146        O  0.46977715  0.68882108  0.06469646    -0.81050
O147        O  0.51364497  0.79628770  0.92648402    -0.81070
O148        O  0.46580731  0.85836734  0.00729793    -0.81080
O149        O  0.37064909  0.72025461  0.98568775    -0.81020
O150        O  0.54026269  0.86014132  0.97259512    -0.81150
O151        O  0.41162331  0.66886383  0.01779208    -0.81070
O152        O  0.41899294  0.77804068  0.94092303    -0.81050
O153        O  0.42451448  0.76300444  0.04702524    -0.81090
C154        C  0.43056499  0.72696400  0.06801822     1.08640
C155        C  0.45574886  0.79895297  0.92260602     1.08520
C156        C  0.49806232  0.88357660  0.98803391     1.08660
C157        C  0.36439334  0.68352598  0.00405514     1.08540
O158        O  0.53347113  0.64480951  0.01412294    -0.81050
O159        O  0.63058777  0.77416533  0.99239833    -0.81130
O160        O  0.51643648  0.82289547  0.06266735    -0.81060
O161        O  0.50328799  0.69313209  0.92744041    -0.81040
O162        O  0.59039010  0.71029111  0.94950292    -0.81100
O163        O  0.56450381  0.74632884  0.05011217    -0.81060
O164        O  0.46951469  0.63654072  0.97525376    -0.81020
O165        O  0.58513621  0.83333404  0.01856673    -0.81090
Co166      Co  0.49076273  0.71097424  0.02693415     1.51530
Co167      Co  0.56586804  0.78281948  0.96229469     1.51690
Co168      Co  0.50282076  0.79408798  0.02544063     1.51570
Co169      Co  0.44288021  0.70982410  0.95972748     1.51470
O170        O  0.50017935  0.74963583  0.98793396    -1.42980
C171        C  0.50781402  0.61645112  0.99386191     1.08570
C172        C  0.63476915  0.81421684  0.00890185     1.08660
C173        C  0.55544481  0.78605744  0.06894460     1.08590
C174        C  0.56149623  0.69006553  0.92812171     1.08570
O175        O  0.97569233  0.94252671  0.07162851    -0.81050
O176        O  0.96600166  0.07404374  0.94185556    -0.81070
O177        O  0.96163290  0.10578996  0.02115333    -0.81080
O178        O  0.87498409  0.96014686  0.98359183    -0.81020
O179        O  0.02716783  0.12218626  0.98528900    -0.81150
O180        O  0.90951660  0.92581289  0.02412426    -0.81070
O181        O  0.93037615  0.99275398  0.93332100    -0.81050
O182        O  0.92775698  0.01277067  0.05272784    -0.81090
C183        C  0.93360784  0.97813286  0.07387822     1.08640
C184        C  0.93601398  0.04130859  0.92614663     1.08520
C185        C  0.98851717  0.13810317  0.00414512     1.08660
C186        C  0.86501525  0.93443077  0.00667049     1.08540
O187        O  0.03699267  0.89497024  0.02275129    -0.81050
O188        O  0.12267128  0.03982810  0.98084217    -0.81130
O189        O  0.02747984  0.06486004  0.06961254    -0.81060
O190        O  0.02748938  0.92069138  0.94170103    -0.81040
O191        O  0.06331802  0.00168173  0.93268044    -0.81100
O192        O  0.07428008  0.99227801  0.05202636    -0.81060
O193        O  0.96928053  0.87698458  0.98774884    -0.81020
O194        O  0.08973733  0.07641878  0.02122001    -0.81090
Co195      Co  0.99390233  0.96282942  0.03228697     1.51530
Co196      Co  0.04175946  0.05404434  0.96318518     1.51690
Co197      Co  0.00644804  0.03973712  0.03129399     1.51570
Co198      Co  0.95381362  0.94317331  0.96457406     1.51470
O199        O  0.99913472  0.99933276  0.99148819    -1.42980
C200        C  0.00984363  0.86199319  0.00584928     1.08570
C201        C  0.13334353  0.06702366  0.00350262     1.08660
C202        C  0.07132557  0.03090537  0.07155954     1.08590
C203        C  0.05793444  0.95263879  0.92582595     1.08570
O204        O  0.02012556  0.56958528  0.06660809    -0.81050
O205        O  0.99367066  0.44439539  0.93030835    -0.81070
O206        O  0.02831638  0.39592953  0.01692908    -0.81080
O207        O  0.12589592  0.52574513  0.99212048    -0.81020
O208        O  0.96056989  0.38859030  0.97959090    -0.81150
O209        O  0.08387861  0.58279136  0.02067434    -0.81070
O210        O  0.08367318  0.46434595  0.94893384    -0.81050
O211        O  0.06820751  0.49510399  0.05131812    -0.81090
C212        C  0.06318006  0.53486575  0.07032189     1.08640
C213        C  0.05219970  0.44169593  0.92920573     1.08520
C214        C  0.99839683  0.36755691  0.99812872     1.08660
C215        C  0.13207091  0.56538301  0.00879595     1.08540
O216        O  0.96289796  0.60744935  0.01263146    -0.81050
O217        O  0.86695750  0.47455694  0.99157181    -0.81130
O218        O  0.97110166  0.44226346  0.06980391    -0.81060
O219        O  0.00229360  0.54908995  0.92896848    -0.81040
O220        O  0.91124877  0.53107266  0.94695049    -0.81100
O221        O  0.92395812  0.51428175  0.05095446    -0.81060
O222        O  0.03312882  0.61091112  0.97632450    -0.81020
O223        O  0.90824361  0.42299221  0.02338164    -0.81090
Co224      Co  0.00210751  0.54323409  0.02904201     1.51530
Co225      Co  0.93595662  0.46215390  0.96419379     1.51690
Co226      Co  0.98985311  0.46283440  0.03080887     1.51570
Co227      Co  0.05830340  0.53512540  0.96372161     1.51470
O228        O  0.99653492  0.50017632  0.99108046    -1.42980
C229        C  0.99422893  0.63396656  0.99371820     1.08570
C230        C  0.86049246  0.43881115  0.01046013     1.08660
C231        C  0.93002853  0.47912051  0.07218209     1.08590
C232        C  0.94393346  0.55279228  0.92748148     1.08570
O233        O  0.82056183  0.13275046  0.79945121    -0.81050
O234        O  0.83723107  0.16166065  0.69676823    -0.81070
O235        O  0.83797405  0.04432508  0.76882087    -0.81080
O236        O  0.71164129  0.23948716  0.73111747    -0.81020
O237        O  0.88144401  0.09947139  0.73966772    -0.81150
O238        O  0.77849634  0.23122223  0.76883065    -0.81070
O239        O  0.74541832  0.18542591  0.68128460    -0.81050
O240        O  0.77500370  0.05772280  0.81546489    -0.81090
C241        C  0.81654698  0.09416892  0.81874259     1.08640
C242        C  0.80346751  0.18449733  0.67805671     1.08520
C243        C  0.88665501  0.06138359  0.75721428     1.08660
C244        C  0.74959749  0.25964501  0.75003110     1.08540
O245        O  0.65892819  0.20157040  0.77346388    -0.81050
O246        O  0.78682974  0.01403821  0.72407327    -0.81130
O247        O  0.67613034  0.10864415  0.79909005    -0.81060
O248        O  0.66216334  0.09869099  0.69418393    -0.81040
O249        O  0.75453945  0.07791175  0.67767770    -0.81100
O250        O  0.72116029  0.18048994  0.81975137    -0.81060
O251        O  0.61791231  0.15095183  0.74086132    -0.81020
O252        O  0.71810585  0.01647814  0.76130818    -0.81090
Co253      Co  0.74117773  0.16264540  0.78030587     1.51530
Co254      Co  0.81157166  0.09080146  0.71199198     1.51690
Co255      Co  0.75557856  0.08233590  0.77757690     1.51570
Co256      Co  0.68748315  0.16593039  0.71413360     1.51470
O257        O  0.74920432  0.12616343  0.73992959    -1.42980
C258        C  0.61135189  0.18622813  0.76014069     1.08570
C259        C  0.74826360  0.99079541  0.74153669     1.08660
C260        C  0.68023134  0.14326985  0.82083079     1.08590
C261        C  0.69640363  0.07791775  0.67481236     1.08570
O262        O  0.68548142  0.62043574  0.80069873    -0.81050
O263        O  0.66205385  0.58513181  0.69840726    -0.81070
O264        O  0.66521087  0.70662627  0.76876207    -0.81080
O265        O  0.78713597  0.51317469  0.72682347    -0.81020
O266        O  0.62091351  0.64804469  0.74155687    -0.81150
O267        O  0.72067194  0.51933638  0.76470759    -0.81070
O268        O  0.75185688  0.56831121  0.67867904    -0.81050
O269        O  0.73280085  0.69748419  0.81333447    -0.81090
C270        C  0.69417190  0.66013658  0.81958193     1.08640
C271        C  0.69351525  0.56314476  0.67847306     1.08520
C272        C  0.61607456  0.68772822  0.75828263     1.08660
C273        C  0.74912560  0.49156494  0.74502488     1.08540
O274        O  0.84092597  0.54694634  0.76960753    -0.81050
O275        O  0.71121461  0.73386047  0.72292617    -0.81130
O276        O  0.82639490  0.63909502  0.79811110    -0.81060
O277        O  0.83282510  0.65658473  0.69484143    -0.81040
O278        O  0.74110316  0.67084536  0.67654076    -0.81100
O279        O  0.78114091  0.56504875  0.81620150    -0.81060
O280        O  0.88088646  0.60016408  0.73832216    -0.81020
O281        O  0.78484260  0.73258860  0.75778074    -0.81090
Co282      Co  0.76038300  0.58663037  0.77815801     1.51530
Co283      Co  0.68663368  0.65708230  0.71200760     1.51690
Co284      Co  0.74758691  0.66863365  0.77619823     1.51570
Co285      Co  0.81068938  0.58710345  0.71172725     1.51470
O286        O  0.75064278  0.62406778  0.73890765    -1.42980
C287        C  0.88812021  0.56333003  0.75644005     1.08570
C288        C  0.75288060  0.75768626  0.73841025     1.08660
C289        C  0.82120174  0.60277144  0.81902198     1.08590
C290        C  0.79932832  0.67619745  0.67502475     1.08570
O291        O  0.17369649  0.36142552  0.79956571    -0.81050
O292        O  0.16500190  0.33654494  0.69677000    -0.81070
O293        O  0.15935823  0.45184241  0.76984302    -0.81080
O294        O  0.28580781  0.26011320  0.72564381    -0.81020
O295        O  0.11861195  0.39650228  0.73957389    -0.81150
O296        O  0.21386865  0.26482808  0.76149703    -0.81070
O297        O  0.25591920  0.31970672  0.67832920    -0.81050
O298        O  0.21886208  0.43658955  0.81664383    -0.81090
C299        C  0.17881345  0.39901312  0.82000743     1.08640
C300        C  0.19765033  0.31509882  0.67702521     1.08520
C301        C  0.11187670  0.43469055  0.75710423     1.08660
C302        C  0.24418589  0.23839796  0.74197440     1.08540
O303        O  0.33398648  0.29091265  0.77099388    -0.81050
O304        O  0.21248015  0.48259662  0.72624592    -0.81130
O305        O  0.31493591  0.38008844  0.80193238    -0.81060
O306        O  0.33633192  0.40659147  0.69863081    -0.81040
O307        O  0.24639862  0.42276222  0.67876753    -0.81100
O308        O  0.26729659  0.30425446  0.81566421    -0.81060
O309        O  0.37845717  0.34607889  0.74209292    -0.81020
O310        O  0.27915249  0.47891308  0.76412463    -0.81090
Co311      Co  0.25214833  0.33013071  0.77813348     1.51530
Co312      Co  0.18823923  0.40730340  0.71248210     1.51690
Co313      Co  0.23973150  0.41241605  0.77882635     1.51570
Co314      Co  0.31140132  0.33571344  0.71333510     1.51470
O315        O  0.24862762  0.37179419  0.74007077    -1.42980
C316        C  0.38316632  0.30859656  0.76005245     1.08570
C317        C  0.25078184  0.50542613  0.74402139     1.08660
C318        C  0.30624094  0.34170189  0.82138822     1.08590
C319        C  0.30481899  0.42556456  0.67798628     1.08570
O320        O  0.32510332  0.88873689  0.79832367    -0.81050
O321        O  0.34001272  0.90312272  0.69585268    -0.81070
O322        O  0.34054811  0.79518801  0.77209637    -0.81080
O323        O  0.21492100  0.98429374  0.72407648    -0.81020
O324        O  0.38264294  0.84713194  0.74087288    -0.81150
O325        O  0.28522254  0.98046367  0.76033176    -0.81070
O326        O  0.24883409  0.92244128  0.67796378    -0.81050
O327        O  0.27942409  0.81715150  0.81861336    -0.81090
C328        C  0.32055762  0.85427096  0.81992569     1.08640
C329        C  0.30714314  0.92613261  0.67682449     1.08520
C330        C  0.38849969  0.81086612  0.75939670     1.08660
C331        C  0.25498125  0.00687933  0.74110840     1.08540
O332        O  0.16387596  0.95457439  0.76825877    -0.81050
O333        O  0.28857960  0.75969051  0.72835878    -0.81130
O334        O  0.18117026  0.86713188  0.79957394    -0.81060
O335        O  0.16608344  0.83727014  0.69511934    -0.81040
O336        O  0.25842576  0.81713009  0.67865489    -0.81100
O337        O  0.22817533  0.94290301  0.81445363    -0.81060
O338        O  0.12051935  0.89898658  0.73879464    -0.81020
O339        O  0.22205046  0.76678432  0.76657356    -0.81090
Co340      Co  0.24612740  0.91612781  0.77684652     1.51530
Co341      Co  0.31422529  0.83410450  0.71312252     1.51690
Co342      Co  0.25936958  0.83530377  0.77936162     1.51570
Co343      Co  0.19055515  0.90793474  0.71138068     1.51470
O344        O  0.25168592  0.87194925  0.73926608    -1.42980
C345        C  0.11510865  0.93702076  0.75668673     1.08570
C346        C  0.25090709  0.73883297  0.74716474     1.08660
C347        C  0.18582792  0.90742556  0.81820253     1.08590
C348        C  0.20021911  0.81662677  0.67565839     1.08570
O349        O  0.49660148  0.94452616  0.42794370    -0.81050
O350        O  0.52221681  0.06075225  0.56645883    -0.81070
O351        O  0.63011565  0.01979354  0.49257999    -0.81080
O352        O  0.52739180  0.88832568  0.51276509    -0.81020
O353        O  0.58685072  0.07678528  0.52089731    -0.81150
O354        O  0.46011253  0.88548460  0.47497157    -0.81070
O355        O  0.56865220  0.98602532  0.54968959    -0.81050
O356        O  0.58524004  0.95841906  0.44949610    -0.81090
C357        C  0.55491288  0.94047622  0.42796334     1.08640
C358        C  0.56368070  0.02431870  0.56961756     1.08520
C359        C  0.63554505  0.05889450  0.50968245     1.08660
C360        C  0.49816960  0.86226713  0.49255883     1.08540
O361        O  0.36932061  0.97311389  0.48888805    -0.81050
O362        O  0.46855634  0.10423091  0.51205781    -0.81130
O363        O  0.51018180  0.04676486  0.42851517    -0.81060
O364        O  0.46941943  0.93382022  0.56612490    -0.81040
O365        O  0.42554106  0.00862675  0.54851004    -0.81100
O366        O  0.41683271  0.03203652  0.44514478    -0.81060
O367        O  0.40949742  0.91818538  0.51921907    -0.81020
O368        O  0.53963546  0.10706913  0.47594188    -0.81090
Co369      Co  0.43825556  0.96122929  0.46146743     1.51530
Co370      Co  0.50469975  0.03781143  0.52803427     1.51690
Co371      Co  0.56364287  0.03056595  0.46365538     1.51570
Co372      Co  0.49080752  0.95594650  0.52794002     1.51470
O373        O  0.49917939  0.99656496  0.48951709    -1.42980
C374        C  0.36227434  0.93541583  0.50660633     1.08570
C375        C  0.49942113  0.13034157  0.49267725     1.08660
C376        C  0.45229885  0.05272476  0.42628550     1.08590
C377        C  0.43019784  0.97217055  0.56914483     1.08570
O378        O  0.50645474  0.54477718  0.42815709    -0.81050
O379        O  0.47960869  0.43228909  0.56656447    -0.81070
O380        O  0.36960828  0.46683014  0.48927884    -0.81080
O381        O  0.46364353  0.60259282  0.51451401    -0.81020
O382        O  0.41365063  0.41564096  0.52070632    -0.81150
O383        O  0.52996953  0.60845592  0.47622037    -0.81070
O384        O  0.42930408  0.50465637  0.55057732    -0.81050
O385        O  0.41365008  0.52406402  0.44383726    -0.81090
C386        C  0.44838023  0.54559639  0.42501635     1.08640
C387        C  0.43686291  0.46721577  0.57048470     1.08520
C388        C  0.36483671  0.43144300  0.50854910     1.08660
C389        C  0.49063307  0.62960076  0.49429577     1.08540
O390        O  0.62775339  0.52549902  0.49232769    -0.81050
O391        O  0.53606580  0.39081933  0.51342120    -0.81130
O392        O  0.50119995  0.43926249  0.42988421    -0.81060
O393        O  0.52563236  0.56085660  0.56741411    -0.81040
O394        O  0.57295776  0.48810555  0.54897704    -0.81100
O395        O  0.58917456  0.46305084  0.44959676    -0.81060
O396        O  0.58419871  0.58174086  0.52075700    -0.81020
O397        O  0.46590254  0.38227152  0.47718085    -0.81090
Co398      Co  0.56044146  0.53330799  0.46365233     1.51530
Co399      Co  0.49517202  0.45607163  0.52834901     1.51690
Co400      Co  0.44023960  0.45617358  0.46235497     1.51570
Co401      Co  0.50546297  0.53801942  0.52898611     1.51470
O402        O  0.49871531  0.49683334  0.48995781    -1.42980
C403        C  0.63270713  0.56531153  0.50880034     1.08570
C404        C  0.50711876  0.36255531  0.49431632     1.08660
C405        C  0.55974662  0.43858059  0.42974182     1.08590
C406        C  0.56675646  0.52398906  0.57004004     1.08570
O407        O  0.00616062  0.30557760  0.42977128    -0.81050
O408        O  0.97046537  0.18147207  0.56522339    -0.81070
O409        O  0.86678881  0.22518669  0.48997449    -0.81080
O410        O  0.96718474  0.35662030  0.51612508    -0.81020
O411        O  0.90951596  0.16853185  0.51837955    -0.81150
O412        O  0.03654312  0.36262375  0.47910694    -0.81070
O413        O  0.92446334  0.25669204  0.54971101    -0.81050
O414        O  0.91389439  0.28663614  0.44677001    -0.81090
C415        C  0.94800410  0.30642473  0.42704525     1.08640
C416        C  0.92777292  0.21660290  0.56843340     1.08520
C417        C  0.86116460  0.18606477  0.50681122     1.08660
C418        C  0.99677175  0.38381952  0.49679282     1.08540
O419        O  0.12874211  0.27498066  0.49223444    -0.81050
O420        O  0.02951882  0.14205477  0.51141110    -0.81130
O421        O  0.99312279  0.20086021  0.42851805    -0.81060
O422        O  0.02104846  0.30922136  0.56883641    -0.81040
O423        O  0.06805661  0.23623834  0.55048243    -0.81100
O424        O  0.08584610  0.21860494  0.44576820    -0.81060
O425        O  0.08622833  0.32794823  0.52333506    -0.81020
O426        O  0.96035903  0.13878484  0.47455551    -0.81090
Co427      Co  0.06142359  0.28794473  0.46400343     1.51530
Co428      Co  0.99083226  0.20737825  0.52777266     1.51690
Co429      Co  0.93637226  0.21538824  0.46230557     1.51570
Co430      Co  0.00383884  0.28865962  0.52983489     1.51470
O431        O  0.99837402  0.25042339  0.49006287    -1.42980
C432        C  0.13460335  0.31130985  0.51108855     1.08570
C433        C  0.99904095  0.11555784  0.49196696     1.08660
C434        C  0.05118883  0.19837961  0.42626610     1.08590
C435        C  0.06080651  0.27145795  0.57182880     1.08570
O436        O  0.99578455  0.80033428  0.42868523    -0.81050
O437        O  0.98097607  0.68867030  0.56790452    -0.81070
O438        O  0.86919311  0.71876878  0.49237458    -0.81080
O439        O  0.95900340  0.85623758  0.51353499    -0.81020
O440        O  0.91561553  0.66773034  0.52265697    -0.81150
O441        O  0.02381228  0.86272334  0.47490306    -0.81070
O442        O  0.92920862  0.75958515  0.55046948    -0.81050
O443        O  0.90555394  0.77813325  0.44672228    -0.81090
C444        C  0.93742162  0.80286258  0.42789088     1.08640
C445        C  0.93833506  0.72402395  0.57116634     1.08520
C446        C  0.86632868  0.68094463  0.51023306     1.08660
C447        C  0.98403667  0.88332030  0.49284657     1.08540
O448        O  0.12497371  0.78103728  0.48897720    -0.81050
O449        O  0.03615675  0.64470060  0.51364080    -0.81130
O450        O  0.99164694  0.69613916  0.42879439    -0.81060
O451        O  0.02540416  0.81826546  0.56564261    -0.81040
O452        O  0.07399532  0.74533100  0.54794876    -0.81100
O453        O  0.08321139  0.71873507  0.44549552    -0.81060
O454        O  0.08123945  0.83687300  0.51788852    -0.81020
O455        O  0.96609329  0.63699897  0.47737503    -0.81090
Co456      Co  0.05466755  0.78809298  0.46181788     1.51530
Co457      Co  0.99568387  0.71050468  0.52883721     1.51690
Co458      Co  0.93590451  0.71017950  0.46350243     1.51570
Co459      Co  0.00368654  0.79297484  0.52792512     1.51470
O460        O  0.99668268  0.75012542  0.48969242    -1.42980
C461        C  0.12962903  0.82047905  0.50579308     1.08570
C462        C  0.00708382  0.61631093  0.49444016     1.08660
C463        C  0.04995700  0.69580883  0.42642334     1.08590
C464        C  0.06974034  0.78422530  0.56754352     1.08570
C465        C  0.98052543  0.52784415  0.47166655    -0.27230
C466        C  0.01162740  0.55623721  0.49422106    -0.15300
C467        C  0.03499090  0.52680945  0.51836771     0.35330
C468        C  0.02549111  0.47059483  0.51950711    -0.26680
C469        C  0.99344023  0.44307272  0.49718156    -0.15920
C470        C  0.96989556  0.47222633  0.47319927     0.36410
N471        N  0.93375266  0.44710420  0.45041687    -0.90170
H472        H  0.96149186  0.54934998  0.45308583     0.17530
H473        H  0.04463201  0.44776208  0.53759512     0.17520
N474        N  0.06713571  0.55379274  0.54188947    -0.89200
H475        H  0.89032578  0.46546074  0.45045569     0.34890
H476        H  0.92568203  0.40644156  0.45488015     0.39990
H477        H  0.10867375  0.56840013  0.53331559     0.39610
H478        H  0.07904244  0.52645803  0.55836780     0.34500
C479        C  0.97585697  0.02811582  0.46728265    -0.27230
C480        C  0.99888920  0.05551017  0.49217784    -0.15300
C481        C  0.01064224  0.02528074  0.51798827     0.35330
C482        C  0.99874294  0.96981161  0.51823553    -0.26680
C483        C  0.97792389  0.94253312  0.49301849    -0.15920
C484        C  0.96554889  0.97227751  0.46729327     0.36410
N485        N  0.94181091  0.94744207  0.44100001    -0.90170
H486        H  0.96438938  0.05040493  0.44762991     0.17530
H487        H  0.00991501  0.94712542  0.53785068     0.17520
N488        N  0.03448093  0.04922118  0.54437597    -0.89200
H489        H  0.89951222  0.96569066  0.43624692     0.34890
H490        H  0.93148495  0.90701335  0.44470999     0.39990
H491        H  0.00383090  0.07885517  0.55163364     0.39610
H492        H  0.07731108  0.06674031  0.53978544     0.34500
C493        C  0.30671576  0.34529884  0.51237700    -0.27230
C494        C  0.30556952  0.40207334  0.51328546    -0.15300
C495        C  0.24792404  0.42826684  0.51686895     0.35330
C496        C  0.19345096  0.39715244  0.51749430    -0.26680
C497        C  0.19446135  0.34040864  0.51504237    -0.15920
C498        C  0.25246545  0.31421983  0.51346576     0.36410
N499        N  0.25862453  0.25643798  0.51352136    -0.90170
H500        H  0.35034533  0.32461469  0.50992791     0.17530
H501        H  0.14960415  0.41791862  0.51895184     0.17520
N502        N  0.24252046  0.48593984  0.51989013    -0.89200
H503        H  0.27263023  0.24429338  0.49250925     0.34890
H504        H  0.21706454  0.23708204  0.51830887     0.39990
H505        H  0.28566704  0.50458758  0.52092192     0.39610
H506        H  0.22155483  0.49382971  0.54017166     0.34500
C507        C  0.74713152  0.56614523  0.51343046    -0.27230
C508        C  0.69203428  0.59517160  0.51142396    -0.15300
C509        C  0.69473039  0.65206953  0.51025301     0.35330
C510        C  0.75225191  0.67844325  0.51149758    -0.26680
C511        C  0.80782569  0.64960924  0.51374395    -0.15920
C512        C  0.80466177  0.59200809  0.51554957     0.36410
N513        N  0.85750688  0.55733984  0.51821679    -0.90170
H514        H  0.74557448  0.52238962  0.51359635     0.17530
H515        H  0.75382793  0.72206219  0.50974062     0.17520
N516        N  0.63951850  0.68287053  0.50584624    -0.89200
H517        H  0.85308620  0.53619071  0.53793671     0.34890
H518        H  0.89871184  0.57820691  0.51976162     0.39990
H519        H  0.62375640  0.67420153  0.48462387     0.39610
H520        H  0.64909432  0.72426930  0.50630811     0.34500
C521        C  0.24937713  0.93135379  0.49763675    -0.27230
C522        C  0.30197492  0.90722392  0.50964123    -0.15300
C523        C  0.29669209  0.85488904  0.52209487     0.35330
C524        C  0.23975225  0.82734176  0.52075317    -0.26680
C525        C  0.18787659  0.85135529  0.50806749    -0.15920
C526        C  0.19295494  0.90422640  0.49672804     0.36410
N527        N  0.14217690  0.93084141  0.48306523    -0.90170
H528        H  0.25228792  0.97134311  0.48817023     0.17530
H529        H  0.23574625  0.78697672  0.52964294     0.17520
N530        N  0.34916036  0.82915106  0.53531150    -0.89200
H531        H  0.10703553  0.93420918  0.49857053     0.34890
H532        H  0.12714738  0.90716358  0.46537555     0.39990
H533        H  0.35971368  0.85058626  0.55454608     0.39610
H534        H  0.33811536  0.78989636  0.54185291     0.34500
C535        C  0.51261505  0.77462534  0.51803330    -0.27230
C536        C  0.49971096  0.80232599  0.49193197    -0.15300
C537        C  0.47997553  0.77250968  0.46689974     0.35330
C538        C  0.47422355  0.71611402  0.46855985    -0.26680
C539        C  0.48611466  0.68888398  0.49475357    -0.15920
C540        C  0.50545163  0.71835868  0.51981522     0.36410
N541        N  0.52133897  0.69070343  0.54647577    -0.90170
H542        H  0.52682033  0.79703541  0.53741899     0.17530
H543        H  0.46145085  0.69308058  0.44918637     0.17520
N544        N  0.46660529  0.79940789  0.43974387    -0.89200
H545        H  0.53874353  0.71780679  0.56213565     0.34890
H546        H  0.48063846  0.67489445  0.55528714     0.39990
H547        H  0.50804962  0.81597978  0.43224216     0.39610
H548        H  0.45195840  0.77180906  0.42369521     0.34500
C549        C  0.53691186  0.21782281  0.47257638    -0.27230
C550        C  0.49719828  0.19038638  0.49209903    -0.15300
C551        C  0.46346631  0.22083581  0.51303343     0.35330
C552        C  0.47224430  0.27692677  0.51461158    -0.26680
C553        C  0.51169123  0.30368186  0.49510121    -0.15920
C554        C  0.54462264  0.27390129  0.47383488     0.36410
N555        N  0.58619675  0.29891579  0.45333499    -0.90170
H556        H  0.56353351  0.19556053  0.45640851     0.17530
H557        H  0.44651581  0.30036867  0.53063210     0.17520
N558        N  0.42046625  0.19516874  0.53259154    -0.89200
H559        H  0.63015950  0.28298070  0.45703971     0.34890
H560        H  0.59000970  0.34031541  0.45727775     0.39990
H561        H  0.38426826  0.17997382  0.51975922     0.39610
H562        H  0.40081887  0.22338612  0.54698500     0.34500
C563        C  0.69083210  0.14678441  0.51218154    -0.27230
C564        C  0.69430910  0.08991208  0.51216496    -0.15300
C565        C  0.75336778  0.06533330  0.51204424     0.35330
C566        C  0.80633776  0.09801679  0.51028203    -0.26680
C567        C  0.80268652  0.15474471  0.50929784    -0.15920
C568        C  0.74393915  0.17918345  0.51054156     0.36410
N569        N  0.73669589  0.23665630  0.51047241    -0.90170
H570        H  0.64614998  0.16641811  0.51240011     0.17530
H571        H  0.85113056  0.07857963  0.50958091     0.17520
N572        N  0.76184655  0.00783832  0.51405931    -0.89200
H573        H  0.75413147  0.25168950  0.49072803     0.34890
H574        H  0.76235660  0.25287598  0.52788897     0.39990
H575        H  0.72037636  0.98792092  0.51822344     0.39610
H576        H  0.78926868  0.00056713  0.53253084     0.34500
C577        C  0.30152771  0.96097497  0.62547569    -0.27230
C578        C  0.33690865  0.95161799  0.65093008    -0.15300
C579        C  0.40131308  0.96027299  0.64982328     0.35330
C580        C  0.42928909  0.97098495  0.62271700    -0.26680
C581        C  0.39461961  0.97462516  0.59675232    -0.15920
C582        C  0.32945942  0.97260476  0.59839322     0.36410
N583        N  0.29021680  0.97976582  0.57328617    -0.90170
H584        H  0.25183297  0.95627832  0.62610662     0.17530
H585        H  0.47915158  0.97427508  0.62159854     0.17520
N586        N  0.43847180  0.95617725  0.67591166    -0.89200
H587        H  0.26842726  0.94287055  0.56891928     0.34890
H588        H  0.31529459  0.99029488  0.55467120     0.39990
H589        H  0.42500003  0.98726239  0.69017309     0.39610
H590        H  0.48507131  0.96280043  0.67109943     0.34500
C591        C  0.13524024  0.74637300  0.60741052    -0.27230
C592        C  0.11535094  0.79141855  0.59140545    -0.15300
C593        C  0.12956075  0.84379144  0.60182690     0.35330
C594        C  0.15804512  0.85007341  0.62925762    -0.26680
C595        C  0.17350005  0.80534019  0.64640927    -0.15920
C596        C  0.16336760  0.75290275  0.63519219     0.36410
N597        N  0.17759809  0.70677664  0.65276766    -0.90170
H598        H  0.12386050  0.70619969  0.59950836     0.17530
H599        H  0.16696041  0.89035034  0.63765467     0.17520
N600        N  0.11348354  0.89050024  0.58482704    -0.89200
H601        H  0.16928337  0.67112990  0.64096749     0.34890
H602        H  0.14617231  0.70699773  0.67020742     0.39990
H603        H  0.13957716  0.88923119  0.56551418     0.39610
H604        H  0.12620024  0.92599294  0.59584738     0.34500
C605        C  0.33309330  0.49013361  0.63787303    -0.27230
C606        C  0.33634774  0.43853742  0.65030232    -0.15300
C607        C  0.36915340  0.39744187  0.63570409     0.35330
C608        C  0.39542997  0.40793268  0.60841139    -0.26680
C609        C  0.39621677  0.46015266  0.59644249    -0.15920
C610        C  0.36488284  0.50231863  0.61173612     0.36410
N611        N  0.36714309  0.55800175  0.60309119    -0.90170
H612        H  0.30885990  0.52199329  0.64935400     0.17530
H613        H  0.41851362  0.37502706  0.59711850     0.17520
N614        N  0.37607489  0.34494743  0.64871840    -0.89200
H615        H  0.32353341  0.56849486  0.59515869     0.34890
H616        H  0.39926000  0.56532922  0.58662354     0.39990
H617        H  0.40546095  0.34907443  0.66680903     0.39610
H618        H  0.39814890  0.31829905  0.63424540     0.34500
C619        C  0.10080898  0.29147144  0.65146901    -0.27230
C620        C  0.16556670  0.29107690  0.65098793    -0.15300
C621        C  0.19555512  0.27356317  0.62476272     0.35330
C622        C  0.16063872  0.26288614  0.59930461    -0.26680
C623        C  0.09655497  0.26985712  0.59942097    -0.15920
C624        C  0.06630547  0.28136755  0.62615868     0.36410
N625        N  0.00015567  0.28310765  0.62744876    -0.90170
H626        H  0.07638221  0.30202357  0.67146799     0.17530
H627        H  0.18406886  0.25290562  0.57893640     0.17520
N628        N  0.26108508  0.26885997  0.62263836    -0.89200
H629        H  0.98494330  0.29519672  0.64828613     0.34890
H630        H  0.98515687  0.24332986  0.62464774     0.39990
H631        H  0.27672178  0.24373381  0.63943864     0.39610
H632        H  0.27989122  0.30734581  0.62516290     0.34500
C633        C  0.27450858  0.59257113  0.76919937    -0.27230
C634        C  0.25394576  0.56544055  0.74378816    -0.15300
C635        C  0.23037160  0.59670841  0.72017899     0.35330
C636        C  0.22940765  0.65281518  0.72243370    -0.26680
C637        C  0.24778239  0.67951682  0.74801114    -0.15920
C638        C  0.27122609  0.64894333  0.77181785     0.36410
N639        N  0.29435462  0.67309644  0.79846769    -0.90170
H640        H  0.29210636  0.56981882  0.78765645     0.17530
H641        H  0.21372860  0.67610102  0.70398271     0.17520
N642        N  0.20700587  0.57337519  0.69351704    -0.89200
H643        H  0.26640664  0.65993777  0.81574928     0.34890
H644        H  0.29128085  0.71496724  0.79827213     0.39990
H645        H  0.16626967  0.55235187  0.69801807     0.39610
H646        H  0.24004835  0.54712768  0.68488261     0.34500
C647        C  0.25045184  0.15178865  0.76777907    -0.27230
C648        C  0.24043105  0.17923563  0.74139899    -0.15300
C649        C  0.23883706  0.15031346  0.71466407     0.35330
C650        C  0.24678501  0.09405935  0.71489210    -0.26680
C651        C  0.25762825  0.06644186  0.74127265    -0.15920
C652        C  0.25989332  0.09579206  0.76804746     0.36410
N653        N  0.26975743  0.06867843  0.79551670    -0.90170
H654        H  0.25356514  0.17453377  0.78816928     0.17530
H655        H  0.24386552  0.07152074  0.69443540     0.17520
N656        N  0.22878373  0.17823898  0.68749089    -0.89200
H657        H  0.26562984  0.09568927  0.81316212     0.34890
H658        H  0.31548672  0.05529163  0.79571905     0.39990
H659        H  0.18435969  0.19457878  0.68830228     0.39610
H660        H  0.22937857  0.15119376  0.66975286     0.34500
C661        C  0.69602905  0.52658064  0.62717588    -0.27230
C662        C  0.66159042  0.53918522  0.65252040    -0.15300
C663        C  0.59643920  0.53668058  0.65101719     0.35330
C664        C  0.56787281  0.52893117  0.62369503    -0.26680
C665        C  0.60228942  0.52193629  0.59781379    -0.15920
C666        C  0.66736390  0.51763963  0.59986850     0.36410
N667        N  0.70630123  0.50679445  0.57502696    -0.90170
H668        H  0.74601292  0.52674664  0.62808919     0.17530
H669        H  0.51788523  0.52990663  0.62244120     0.17520
N670        N  0.55926278  0.54413598  0.67692772    -0.89200
H671        H  0.73404242  0.54084026  0.57185680     0.34890
H672        H  0.68089355  0.50089793  0.55589721     0.39990
H673        H  0.56820704  0.51175240  0.69093228     0.39610
H674        H  0.51224862  0.54224737  0.67180551     0.34500
C675        C  0.89474400  0.70619871  0.65038258    -0.27230
C676        C  0.83043966  0.69937149  0.64880301    -0.15300
C677        C  0.80021364  0.70855488  0.62160644     0.35330
C678        C  0.83580258  0.72079906  0.59646353    -0.26680
C679        C  0.90041800  0.72238985  0.59801066    -0.15920
C680        C  0.92986998  0.71689062  0.62538808     0.36410
N681        N  0.99585138  0.72137992  0.62760272    -0.90170
H682        H  0.91852931  0.70094632  0.67111731     0.17530
H683        H  0.81346191  0.72542787  0.57531558     0.17520
N684        N  0.73434261  0.70320895  0.61915026    -0.89200
H685        H  0.01076708  0.71389422  0.64905428     0.34890
H686        H  0.00704942  0.76158403  0.62323543     0.39990
H687        H  0.72358338  0.66226203  0.62140519     0.39610
H688        H  0.71965671  0.71404033  0.59809976     0.34500
C689        C  0.05839588  0.52266052  0.75806098    -0.27230
C690        C  0.05354401  0.46597507  0.75856039    -0.15300
C691        C  0.99398208  0.44219732  0.75879078     0.35330
C692        C  0.94187803  0.47570066  0.75933285    -0.26680
C693        C  0.94666162  0.53236986  0.75830133    -0.15920
C694        C  0.00623524  0.55616333  0.75749160     0.36410
N695        N  0.01634185  0.61355580  0.75604384    -0.90170
H696        H  0.10364029  0.54142973  0.75729020     0.17530
H697        H  0.89666760  0.45682456  0.75961380     0.17520
N698        N  0.98378360  0.38477734  0.75903979    -0.89200
H699        H  0.04191661  0.62495981  0.77456628     0.34890
H700        H  0.97534814  0.63529780  0.75718659     0.39990
H701        H  0.02470888  0.36292010  0.75982685     0.39610
H702        H  0.96174054  0.37423902  0.73937178     0.34500
C703        C  0.55908266  0.77406596  0.76564013    -0.27230
C704        C  0.55679940  0.71765160  0.76156161    -0.15300
C705        C  0.49833019  0.69242622  0.75911453     0.35330
C706        C  0.44457960  0.72384191  0.75996198    -0.26680
C707        C  0.44712619  0.78044892  0.76240497    -0.15920
C708        C  0.50531882  0.80575774  0.76607498     0.36410
N709        N  0.51189984  0.86303712  0.77060693    -0.90170
H710        H  0.60335053  0.79420727  0.76776186     0.17530
H711        H  0.40031004  0.70386477  0.75743273     0.17520
N712        N  0.49180455  0.63512883  0.75581915    -0.89200
H713        H  0.53307227  0.86882802  0.79104670     0.34890
H714        H  0.46918845  0.88217607  0.77214630     0.39990
H715        H  0.51510962  0.61638094  0.77309205     0.39610
H716        H  0.51162758  0.62321061  0.73588431     0.34500
C717        C  0.65628032  0.00690436  0.64032010    -0.27230
C718        C  0.66900521  0.06139400  0.64650121    -0.15300
C719        C  0.65348251  0.10086705  0.62554566     0.35330
C720        C  0.62471335  0.08576274  0.59957424    -0.26680
C721        C  0.60801278  0.03206667  0.59391208    -0.15920
C722        C  0.62523279  0.99153711  0.61432375     0.36410
N723        N  0.60907113  0.93558707  0.61065463    -0.90170
H724        H  0.66809717  0.97640940  0.65630038     0.17530
H725        H  0.61247111  0.11721297  0.58413047     0.17520
N726        N  0.66522529  0.15711424  0.63009452    -0.89200
H727        H  0.65014607  0.91372557  0.60885624     0.34890
H728        H  0.58449968  0.92864276  0.59134538     0.39990
H729        H  0.71280373  0.16261730  0.63124002     0.39610
H730        H  0.64447733  0.16943849  0.64975164     0.34500
C731        C  0.84252036  0.15116383  0.63100851    -0.27230
C732        C  0.82948240  0.19596538  0.64875153    -0.15300
C733        C  0.83832755  0.24820889  0.63721043     0.35330
C734        C  0.86407169  0.25445580  0.60910010    -0.26680
C735        C  0.88319966  0.20927755  0.59272120    -0.15920
C736        C  0.86872231  0.15700197  0.60330831     0.36410
N737        N  0.87969746  0.10880290  0.58656521    -0.90170
H738        H  0.83333265  0.11079589  0.63896187     0.17530
H739        H  0.87450838  0.29473723  0.60131784     0.17520
N740        N  0.82603682  0.29538912  0.65426648    -0.89200
H741        H  0.92699414  0.10180734  0.58511006     0.34890
H742        H  0.86104007  0.11356915  0.56559440     0.39990
H743        H  0.85494217  0.29398091  0.67261375     0.39610
H744        H  0.77992431  0.29402142  0.66098668     0.34500
C745        C  0.94308013  0.97396772  0.75941254    -0.27230
C746        C  0.94571360  0.03078244  0.76046524    -0.15300
C747        C  0.00435501  0.05579675  0.76304707     0.35330
C748        C  0.05800914  0.02375359  0.76285648    -0.26680
C749        C  0.05554386  0.96697155  0.76043202    -0.15920
C750        C  0.99663511  0.94177892  0.75976216     0.36410
N751        N  0.98882863  0.88404480  0.75966705    -0.90170
H752        H  0.89862401  0.95406434  0.75776063     0.17530
H753        H  0.10246218  0.04385746  0.76398915     0.17520
N754        N  0.01162731  0.11315833  0.76668336    -0.89200
H755        H  0.96159385  0.87416104  0.77784788     0.34890
H756        H  0.03054121  0.86419601  0.76309786     0.39990
H757        H  0.96941160  0.13271502  0.76939048     0.39610
H758        H  0.03217115  0.12812727  0.74759138     0.34500
C759        C  0.77563708  0.84492924  0.76259682    -0.27230
C760        C  0.75569440  0.81748581  0.73729628    -0.15300
C761        C  0.73176513  0.84804912  0.71351398     0.35330
C762        C  0.72918023  0.90439682  0.71568957    -0.26680
C763        C  0.74701035  0.93133465  0.74145298    -0.15920
C764        C  0.77081527  0.90092029  0.76528942     0.36410
N765        N  0.79243685  0.92475659  0.79229463    -0.90170
H766        H  0.79337719  0.82257164  0.78117726     0.17530
H767        H  0.71236044  0.92738535  0.69717566     0.17520
N768        N  0.71031167  0.82359582  0.68676054    -0.89200
H769        H  0.76463487  0.91025200  0.80930865     0.34890
H770        H  0.78763567  0.96635234  0.79253010     0.39990
H771        H  0.67043095  0.80121665  0.69103331     0.39610
H772        H  0.74478153  0.79823990  0.67847568     0.34500
C773        C  0.77777807  0.34406062  0.72663349    -0.27230
C774        C  0.75404313  0.31856632  0.75128836    -0.15300
C775        C  0.72617584  0.34978330  0.77384798     0.35330
C776        C  0.72270139  0.40593340  0.77065503    -0.26680
C777        C  0.74668835  0.43177263  0.74568823    -0.15920
C778        C  0.77509373  0.40001029  0.72343213     0.36410
N779        N  0.80176990  0.42419636  0.69771926    -0.90170
H780        H  0.79862023  0.31970816  0.70977396     0.17530
H781        H  0.70214219  0.42950469  0.78823804     0.17520
N782        N  0.70105967  0.32650582  0.80017067    -0.89200
H783        H  0.80740875  0.39538543  0.68106024     0.34890
H784        H  0.84626308  0.43694296  0.70342158     0.39990
H785        H  0.70654077  0.28477901  0.80065496     0.39610
H786        H  0.65361910  0.33409412  0.80045434     0.34500
C787        C  0.55486167  0.27307257  0.76175301    -0.27230
C788        C  0.55247356  0.21644268  0.76336273    -0.15300
C789        C  0.49437639  0.19106314  0.76683298     0.35330
C790        C  0.44056856  0.22273044  0.76717344    -0.26680
C791        C  0.44267150  0.27935343  0.76425131    -0.15920
C792        C  0.50125976  0.30493517  0.76269616     0.36410
N793        N  0.50861648  0.36271268  0.76219202    -0.90170
H794        H  0.59910145  0.29296417  0.75920221     0.17530
H795        H  0.39633237  0.20243022  0.76885916     0.17520
N796        N  0.48796527  0.13375030  0.77071123    -0.89200
H797        H  0.53754237  0.37339859  0.77969987     0.34890
H798        H  0.46714824  0.38238232  0.76663164     0.39990
H799        H  0.53063129  0.11452893  0.77222091     0.39610
H800        H  0.46546809  0.11817803  0.75217088     0.34500
C801        C  0.94947123  0.58909813  0.87611575    -0.27230
C802        C  0.91367329  0.57702487  0.90118377    -0.15300
C803        C  0.84871830  0.58322975  0.89927107     0.35330
C804        C  0.82175015  0.59570235  0.87241223    -0.26680
C805        C  0.85682891  0.60362534  0.84687101    -0.15920
C806        C  0.92199245  0.60265306  0.84904473     0.36410
N807        N  0.96159663  0.61164386  0.82426880    -0.90170
H808        H  0.99926517  0.58548400  0.87704986     0.17530
H809        H  0.77175615  0.59676896  0.87121748     0.17520
N810        N  0.80804179  0.57578060  0.92378174    -0.89200
H811        H  0.98931019  0.64510251  0.82919543     0.34890
H812        H  0.93610784  0.62214766  0.80580640     0.39990
H813        H  0.82281233  0.60023936  0.94123610     0.39610
H814        H  0.80800641  0.53522088  0.92994722     0.34500
C815        C  0.17744912  0.41214989  0.87325650    -0.27230
C816        C  0.14318580  0.39934143  0.84795203    -0.15300
C817        C  0.07841772  0.39266150  0.85061663     0.35330
C818        C  0.04994351  0.40290100  0.87796806    -0.26680
C819        C  0.08434187  0.41900257  0.90283838    -0.15920
C820        C  0.14949481  0.42051449  0.90061416     0.36410
N821        N  0.18737166  0.43231922  0.92584591    -0.90170
H822        H  0.22720402  0.41606092  0.87160942     0.17530
H823        H  0.00007380  0.40068200  0.87932674     0.17520
N824        N  0.03961445  0.37819136  0.82624267    -0.89200
H825        H  0.23413531  0.43334629  0.92016804     0.34890
H826        H  0.18208750  0.40038754  0.94057467     0.39990
H827        H  0.06528289  0.37172243  0.80726147     0.39610
H828        H  0.01057136  0.41094251  0.82209912     0.34500
C829        C  0.88047112  0.03455776  0.84745893    -0.27230
C830        C  0.86090274  0.08749637  0.84278172    -0.15300
C831        C  0.87245311  0.12754150  0.86455090     0.35330
C832        C  0.89776184  0.11182194  0.89158166    -0.26680
C833        C  0.91114490  0.05746489  0.89729933    -0.15920
C834        C  0.90458294  0.01870746  0.87439719     0.36410
N835        N  0.92156668  0.96306154  0.87843843    -0.90170
H836        H  0.87273989  0.00420496  0.83054756     0.17530
H837        H  0.90483601  0.14203789  0.90858642     0.17520
N838        N  0.85581488  0.18331105  0.86107589    -0.89200
H839        H  0.92328573  0.94263095  0.85826497     0.34890
H840        H  0.88609814  0.94468735  0.89036845     0.39990
H841        H  0.83757511  0.19093380  0.84037237     0.39610
H842        H  0.89637268  0.20612249  0.86255499     0.34500
C843        C  0.12298980  0.87275958  0.86023754    -0.27230
C844        C  0.14192915  0.91592633  0.84241739    -0.15300
C845        C  0.12715551  0.96901903  0.85070371     0.35330
C846        C  0.09898381  0.97867882  0.87757797    -0.26680
C847        C  0.08448185  0.93643934  0.89699060    -0.15920
C848        C  0.09375191  0.88249369  0.88757186     0.36410
N849        N  0.07576652  0.83819193  0.90593674    -0.90170
H850        H  0.13409846  0.83180570  0.85363721     0.17530
H851        H  0.08918422  0.02035379  0.88326765     0.17520
N852        N  0.14190024  0.01373052  0.83204143    -0.89200
H853        H  0.08852314  0.80146638  0.89626312     0.34890
H854        H  0.02755735  0.83792262  0.90693949     0.39990
H855        H  0.17094801  0.04001802  0.84366986     0.39610
H856        H  0.10103992  0.03433076  0.82732265     0.34500
C857        C  0.97495259  0.71813385  0.02216128    -0.27230
C858        C  0.99675230  0.69350994  0.99621056    -0.15300
C859        C  0.03141689  0.72478575  0.97615372     0.35330
C860        C  0.04225202  0.77933316  0.98210534    -0.26680
C861        C  0.01903687  0.80393093  0.00752629    -0.15920
C862        C  0.98571345  0.77281703  0.02809685     0.36410
N863        N  0.96164399  0.79524104  0.05498623    -0.90170
H864        H  0.95035293  0.69461921  0.03842128     0.17530
H865        H  0.06597235  0.80354052  0.96582443     0.17520
N866        N  0.05546343  0.70171592  0.94955722    -0.89200
H867        H  0.91352638  0.79268694  0.05423431     0.34890
H868        H  0.97310843  0.83592509  0.05740459     0.39990
H869        H  0.10341555  0.70671089  0.94965658     0.39610
H870        H  0.03761973  0.72328233  0.93180338     0.34500
C871        C  0.03382460  0.22294803  0.01997024    -0.27230
C872        C  0.98285230  0.19605769  0.00772864    -0.15300
C873        C  0.93801015  0.22508446  0.99213522     0.35330
C874        C  0.94561821  0.28059775  0.98890070    -0.26680
C875        C  0.99713197  0.30811772  0.00078124    -0.15920
C876        C  0.04149337  0.27850736  0.01680301     0.36410
N877        N  0.09584461  0.30279831  0.02905938    -0.90170
H878        H  0.06964500  0.20000654  0.03089678     0.17530
H879        H  0.91021888  0.30222704  0.97698582     0.17520
N880        N  0.88526628  0.19958939  0.97870337    -0.89200
H881        H  0.08306038  0.32980061  0.04569133     0.34890
H882        H  0.11921176  0.32350518  0.01245553     0.39990
H883        H  0.88319733  0.15839560  0.98333575     0.39610
H884        H  0.88988893  0.20324291  0.95592487     0.34500
C885        C  0.60492887  0.63642621  0.85200792    -0.27230
C886        C  0.66129253  0.66342427  0.84799416    -0.15300
C887        C  0.68655233  0.69413216  0.87150825     0.35330
C888        C  0.65471697  0.69746111  0.89802586    -0.26680
C889        C  0.59654948  0.67369161  0.90162094    -0.15920
C890        C  0.57124919  0.64243949  0.87835677     0.36410
N891        N  0.51160162  0.61753200  0.88124787    -0.90170
H892        H  0.58571517  0.61280582  0.83407658     0.17530
H893        H  0.67428558  0.72198854  0.91550358     0.17520
N894        N  0.74352318  0.72366085  0.86830757    -0.89200
H895        H  0.50280495  0.59202588  0.86332432     0.34890
H896        H  0.47852596  0.64810444  0.88013039     0.39990
H897        H  0.77925685  0.69593028  0.86567372     0.39610
H898        H  0.75389981  0.74590597  0.88728899     0.34500
C899        C  0.37726553  0.85451799  0.89796503    -0.27230
C900        C  0.43050464  0.82275064  0.89534083    -0.15300
C901        C  0.45300967  0.80986966  0.86663901     0.35330
C902        C  0.41940351  0.82646899  0.84197731    -0.26680
C903        C  0.36359958  0.85405770  0.84493457    -0.15920
C904        C  0.34345551  0.86965241  0.87323148     0.36410
N905        N  0.28709279  0.89856881  0.87760824    -0.90170
H906        H  0.35983011  0.86518347  0.91957476     0.17530
H907        H  0.43435204  0.81339478  0.82042610     0.17520
N908        N  0.50565082  0.77600787  0.86111696    -0.89200
H909        H  0.25095276  0.87481944  0.86957916     0.34890
H910        H  0.28928914  0.93430707  0.86554816     0.39990
H911        H  0.52475335  0.76020431  0.88008318     0.39610
H912        H  0.53956223  0.79965554  0.85106932     0.34500
C913        C  0.24481685  0.57078317  0.99866754    -0.27230
C914        C  0.19206963  0.59519798  0.01068629    -0.15300
C915        C  0.19742899  0.64911032  0.02150968     0.35330
C916        C  0.25336311  0.67734293  0.01858534    -0.26680
C917        C  0.30568344  0.65270158  0.00651590    -0.15920
C918        C  0.30096160  0.59848915  0.99667212     0.36410
N919        N  0.35186776  0.57076384  0.98359620    -0.90170
H920        H  0.24239513  0.52981068  0.99021641     0.17530
H921        H  0.25567820  0.71903713  0.02566357     0.17520
N922        N  0.14709759  0.67696738  0.03512233    -0.89200
H923        H  0.38717810  0.56900465  0.99911839     0.34890
H924        H  0.36654718  0.59259674  0.96529457     0.39990
H925        H  0.13223880  0.65474972  0.05325133     0.39610
H926        H  0.11131715  0.68016391  0.01994360     0.34500
C927        C  0.69266934  0.90079728  0.00859344    -0.27230
C928        C  0.69395967  0.84438579  0.01223546    -0.15300
C929        C  0.75181401  0.81884852  0.01637461     0.35330
C930        C  0.80616373  0.84998540  0.01536671    -0.26680
C931        C  0.80497689  0.90604198  0.01064119    -0.15920
C932        C  0.74704603  0.93179358  0.00741465     0.36410
N933        N  0.74115146  0.98913143  0.00348854    -0.90170
H934        H  0.64879499  0.92101198  0.00555088     0.17530
H935        H  0.85016753  0.82970527  0.01736030     0.17520
N936        N  0.75760117  0.76183877  0.02165892    -0.89200
H937        H  0.72346247  0.99561205  0.98242372     0.34890
H938        H  0.78361560  0.00891059  0.00470238     0.39990
H939        H  0.71464895  0.74340850  0.02418969     0.39610
H940        H  0.77988985  0.75724233  0.04187847     0.34500
C941        C  0.62039876  0.14045240  0.89829692    -0.27230
C942        C  0.57068484  0.17639065  0.89618906    -0.15300
C943        C  0.55095466  0.19334723  0.86777549     0.35330
C944        C  0.58420412  0.17674497  0.84296758    -0.26680
C945        C  0.63637812  0.14418746  0.84544685    -0.15920
C946        C  0.65337665  0.12441262  0.87332168     0.36410
N947        N  0.70577819  0.09010898  0.87707291    -0.90170
H948        H  0.63554533  0.12671055  0.91969868     0.17530
H949        H  0.57185995  0.19308012  0.82179227     0.17520
N950        N  0.50150068  0.23087488  0.86288679    -0.89200
H951        H  0.74483459  0.11105313  0.87006360     0.34890
H952        H  0.69985785  0.05596007  0.86374341     0.39990
H953        H  0.48110602  0.24411625  0.88219891     0.39610
H954        H  0.46723176  0.21083103  0.85083824     0.34500
C955        C  0.39673077  0.36493211  0.85378571    -0.27230
C956        C  0.33925532  0.33950653  0.84990097    -0.15300
C957        C  0.31311949  0.31035332  0.87361044     0.35330
C958        C  0.34560600  0.30592188  0.89986411    -0.26680
C959        C  0.40505190  0.32737343  0.90321061    -0.15920
C960        C  0.43068231  0.35828210  0.88006995     0.36410
N961        N  0.49074717  0.38242319  0.88308749    -0.90170
H962        H  0.41649148  0.38771846  0.83582340     0.17530
H963        H  0.32523430  0.28226130  0.91732661     0.17520
N964        N  0.25446746  0.28324806  0.87082684    -0.89200
H965        H  0.49997066  0.40762583  0.86525093     0.34890
H966        H  0.52331139  0.35142469  0.88185985     0.39990
H967        H  0.22037248  0.31249530  0.86843059     0.39610
H968        H  0.24335809  0.26190279  0.88987814     0.34500
C969        C  0.24060031  0.07805450  0.02331281    -0.27230
C970        C  0.19184247  0.09761941  0.00620629    -0.15300
C971        C  0.19828386  0.14785949  0.99205202     0.35330
C972        C  0.25394178  0.17677794  0.99454457    -0.26680
C973        C  0.30426068  0.15639662  0.01050643    -0.15920
C974        C  0.29676252  0.10677828  0.02546932     0.36410
N975        N  0.34608567  0.08492034  0.04257912    -0.90170
H976        H  0.23540648  0.04001102  0.03471237     0.17530
H977        H  0.25852491  0.21480679  0.98309277     0.17520
N978        N  0.14816284  0.16938256  0.97507689    -0.89200
H979        H  0.35684200  0.04673107  0.03410621     0.34890
H980        H  0.33031694  0.08008826  0.06412894     0.39990
H981        H  0.14167643  0.14401723  0.95687998     0.39610
H982        H  0.15946259  0.20745435  0.96681544     0.34500
C983        C  0.50267777  0.47129946  0.96828901    -0.27230
C984        C  0.49229303  0.44404002  0.99484024    -0.15300
C985        C  0.49272000  0.47373502  0.02149187     0.35330
C986        C  0.50354554  0.52983953  0.02087751    -0.26680
C987        C  0.51279201  0.55697231  0.99421172    -0.15920
C988        C  0.51281114  0.52725094  0.96769298     0.36410
N989        N  0.52308550  0.55416874  0.94022182    -0.90170
H990        H  0.50393885  0.44853463  0.94786453     0.17530
H991        H  0.50176601  0.55290507  0.04118248     0.17520
N992        N  0.48410733  0.44682101  0.04910634    -0.89200
H993        H  0.52131908  0.52665039  0.92271467     0.34890
H994        H  0.56796083  0.56975819  0.94065003     0.39990
H995        H  0.43846581  0.43310893  0.04978374     0.39610
H996        H  0.48896249  0.47407167  0.06660525     0.34500
C997        C  0.50147933  0.97064587  0.01443061    -0.27230
C998        C  0.49625625  0.94323051  0.98748797    -0.15300
C999        C  0.49819639  0.97290452  0.96107399     0.35330
C1000       C  0.50266708  0.02968285  0.96236838    -0.26680
C1001       C  0.50815020  0.05707609  0.98940083    -0.15920
C1002       C  0.50787112  0.02702245  0.01573634     0.36410
N1003       N  0.51245857  0.05378263  0.04380309    -0.90170
H1004       H  0.50191375  0.94770832  0.03465485     0.17530
H1005       H  0.50192209  0.05276156  0.94220111     0.17520
N1006       N  0.49369609  0.94563266  0.93315405    -0.89200
H1007       H  0.51329734  0.02568554  0.06086389     0.34890
H1008       H  0.47230269  0.07641673  0.04675678     0.39990
H1009       H  0.53450297  0.92399145  0.92990784     0.39610
H1010       H  0.49158881  0.97362516  0.91606910     0.34500
C1011       C  0.80329582  0.35293516  0.01820683    -0.27230
C1012       C  0.80100204  0.40920866  0.01384088    -0.15300
C1013       C  0.74253973  0.43398788  0.01028526     0.35330
C1014       C  0.68942348  0.40147806  0.00877617    -0.26680
C1015       C  0.69231690  0.34497970  0.01137186    -0.15920
C1016       C  0.75000250  0.32055649  0.01696783     0.36410
N1017       N  0.75637139  0.26362729  0.02214464    -0.90170
H1018       H  0.84733982  0.33345694  0.02181700     0.17530
H1019       H  0.64518755  0.42074479  0.00512129     0.17520
N1020       N  0.73482004  0.49159075  0.00839094    -0.89200
H1021       H  0.78120561  0.24720320  0.00455775     0.34890
H1022       H  0.71374062  0.24401623  0.02274093     0.39990
H1023       H  0.77567659  0.51203765  0.01325500     0.39610
H1024       H  0.70418126  0.50320019  0.02502469     0.34500
C1025       C  0.43545350  0.71609409  0.12127594    -0.27230
C1026       C  0.39864794  0.72950819  0.09693568    -0.15300
C1027       C  0.33475885  0.73799399  0.10145809     0.35330
C1028       C  0.30908988  0.72620540  0.12918430    -0.26680
C1029       C  0.34554715  0.70729682  0.15274233    -0.15920
C1030       C  0.41036187  0.70533477  0.14878989     0.36410
N1031       N  0.45240785  0.69082167  0.17173450    -0.90170
H1032       H  0.48496193  0.71169620  0.11861320     0.17530
H1033       H  0.25958568  0.72976881  0.13180972     0.17520
N1034       N  0.29397008  0.75554987  0.07857842    -0.89200
H1035       H  0.44552904  0.65044085  0.17739688     0.34890
H1036       H  0.44482871  0.71593324  0.18993289     0.39990
H1037       H  0.31806671  0.76432706  0.05941543     0.39610
H1038       H  0.27418226  0.79195441  0.08548184     0.34500
C1039       C  0.18033217  0.51697014  0.13266595    -0.27230
C1040       C  0.17259358  0.56662409  0.14733336    -0.15300
C1041       C  0.13393070  0.60616104  0.13475145     0.35330
C1042       C  0.10326142  0.59511985  0.10875318    -0.26680
C1043       C  0.10700037  0.54450032  0.09487517    -0.15920
C1044       C  0.14695797  0.50504623  0.10682804     0.36410
N1045       N  0.15298811  0.45238151  0.09401831    -0.90170
H1046       H  0.21044693  0.48669012  0.14188802     0.17530
H1047       H  0.07410454  0.62667221  0.09997302     0.17520
N1048       N  0.12471120  0.65853434  0.14756404    -0.89200
H1049       H  0.16889451  0.45659546  0.07246092     0.34890
H1050       H  0.10949410  0.43403133  0.09359387     0.39990
H1051       H  0.16700913  0.67838937  0.14888260     0.39610
H1052       H  0.10522877  0.65474919  0.16843999     0.34500
C1053       C  0.38555966  0.54133333  0.34779379    -0.27230
C1054       C  0.36137872  0.59316229  0.34450665    -0.15300
C1055       C  0.37098564  0.63216831  0.36711598     0.35330
C1056       C  0.40075252  0.61644216  0.39323804    -0.26680
C1057       C  0.42181497  0.56341338  0.39685973    -0.15920
C1058       C  0.41530685  0.52625080  0.37344561     0.36410
N1059       N  0.43725220  0.47215494  0.37528949    -0.90170
H1060       H  0.37881369  0.51124391  0.33065764     0.17530
H1061       H  0.40594842  0.64535585  0.41101165     0.17520
N1062       N  0.34874590  0.68666668  0.36521459    -0.89200
H1063       H  0.41576778  0.45343469  0.39310201     0.34890
H1064       H  0.48486588  0.47396424  0.37861518     0.39990
H1065       H  0.32891188  0.69418309  0.34482330     0.39610
H1066       H  0.38700584  0.71233969  0.36673530     0.34500
C1067       C  0.12666386  0.61972805  0.36290179    -0.27230
C1068       C  0.13967403  0.66333312  0.34418635    -0.15300
C1069       C  0.11885941  0.71528764  0.35201758     0.35330
C1070       C  0.08854718  0.72351919  0.37868942    -0.26680
C1071       C  0.07809199  0.68095553  0.39808685    -0.15920
C1072       C  0.09606073  0.62795698  0.38997133     0.36410
N1073       N  0.08668059  0.58249292  0.40896270    -0.90170
H1074       H  0.14340697  0.57976224  0.35729862     0.17530
H1075       H  0.07441933  0.76409251  0.38463369     0.17520
N1076       N  0.12930141  0.76032674  0.33307894    -0.89200
H1077       H  0.05692356  0.55564960  0.39816936     0.34890
H1078       H  0.06467592  0.59395051  0.42843347     0.39990
H1079       H  0.15558468  0.78893431  0.34456715     0.39610
H1080       H  0.08641696  0.77765080  0.32851719     0.34500
C1081       C  0.34948513  0.23544335  0.10290109    -0.27230
C1082       C  0.40795453  0.21227318  0.09863876    -0.15300
C1083       C  0.43654167  0.18542121  0.12264235     0.35330
C1084       C  0.40650793  0.18197816  0.14942207    -0.26680
C1085       C  0.34644235  0.20122163  0.15323001    -0.15920
C1086       C  0.31784994  0.22945638  0.12990080     0.36410
N1087       N  0.25675052  0.25098555  0.13345424    -0.90170
H1088       H  0.32763752  0.25654438  0.08490244     0.17530
H1089       H  0.42950753  0.16029025  0.16690295     0.17520
N1090       N  0.49605438  0.16030819  0.12091237    -0.89200
H1091       H  0.24221148  0.26982167  0.11415300     0.34890
H1092       H  0.25893837  0.28102613  0.14966545     0.39990
H1093       H  0.52868646  0.18826403  0.11371749     0.39610
H1094       H  0.49400523  0.12719630  0.10660377     0.34500
C1095       C  0.17205424  0.10195448  0.12697591    -0.27230
C1096       C  0.18343397  0.06027269  0.14690839    -0.15300
C1097       C  0.16736105  0.00689524  0.13911072     0.35330
C1098       C  0.13484127  0.99669111  0.11298445    -0.26680
C1099       C  0.11870577  0.03926190  0.09436113    -0.15920
C1100       C  0.14017831  0.09183668  0.10072616     0.36410
N1101       N  0.12840994  0.13525797  0.08082314    -0.90170
H1102       H  0.18589894  0.14294390  0.13229890     0.17530
H1103       H  0.11868645  0.95611196  0.10824332     0.17520
N1104       N  0.18026400  0.96311657  0.15829070    -0.89200
H1105       H  0.17085203  0.15165315  0.07447010     0.34890
H1106       H  0.10381007  0.16517079  0.09210451     0.39990
H1107       H  0.16040620  0.97358394  0.17829093     0.39610
H1108       H  0.22802856  0.96135133  0.16137010     0.34500
C1109       C  0.21130285  0.84943787  0.23177710    -0.27230
C1110       C  0.26099376  0.82223136  0.24519860    -0.15300
C1111       C  0.30422042  0.85301080  0.26152468     0.35330
C1112       C  0.29802030  0.90915747  0.26274884    -0.26680
C1113       C  0.24954588  0.93572494  0.24842111    -0.15920
C1114       C  0.20287512  0.90509485  0.23490287     0.36410
N1115       N  0.14318107  0.92729590  0.22842107    -0.90170
H1116       H  0.17541950  0.82685765  0.22052846     0.17530
H1117       H  0.33016634  0.93220244  0.27599662     0.17520
N1118       N  0.35476801  0.82906627  0.27695599    -0.89200
H1119       H  0.12847318  0.91299237  0.20795081     0.34890
H1120       H  0.14409268  0.96943947  0.22812664     0.39990
H1121       H  0.38019846  0.80543747  0.26219898     0.39610
H1122       H  0.33746401  0.80477746  0.29375941     0.34500
C1123       C  0.26587116  0.34889301  0.21909865    -0.27230
C1124       C  0.25795899  0.32245319  0.24599128    -0.15300
C1125       C  0.23975428  0.35318959  0.27106645     0.35330
C1126       C  0.23105880  0.40885625  0.26845351    -0.26680
C1127       C  0.24039311  0.43541607  0.24174070    -0.15920
C1128       C  0.25775647  0.40484251  0.21678068     0.36410
N1129       N  0.26738816  0.43037949  0.18899755    -0.90170
H1130       H  0.27795228  0.32579196  0.19962217     0.17530
H1131       H  0.21885791  0.43179907  0.28796960     0.17520
N1132       N  0.22653197  0.32994288  0.29922636    -0.89200
H1133       H  0.23786876  0.41210561  0.17370456     0.34890
H1134       H  0.31278862  0.42276588  0.18238295     0.39990
H1135       H  0.22946440  0.28820987  0.29905601     0.39610
H1136       H  0.25965565  0.34418835  0.31409372     0.34500
C1137       C  0.36481738  0.09898582  0.40251922    -0.27230
C1138       C  0.42477765  0.07838117  0.39997651    -0.15300
C1139       C  0.45233992  0.07561536  0.37162564     0.35330
C1140       C  0.41757487  0.08927503  0.34673593    -0.26680
C1141       C  0.35586884  0.10508157  0.34937500    -0.15920
C1142       C  0.33016100  0.11157274  0.37770109     0.36410
N1143       N  0.26776653  0.12843721  0.38193047    -0.90170
H1144       H  0.34312180  0.10224045  0.42393624     0.17530
H1145       H  0.43735589  0.08347976  0.32515266     0.17520
N1146       N  0.51363446  0.05569486  0.36706028    -0.89200
H1147       H  0.23925701  0.09977806  0.37195518     0.34890
H1148       H  0.26185309  0.16568009  0.37165128     0.39990
H1149       H  0.51616063  0.01619525  0.37490609     0.39610
H1150       H  0.54451029  0.08020371  0.37872941     0.34500
C1151       C  0.12095127  0.12109796  0.36197764    -0.27230
C1152       C  0.13322422  0.16418973  0.34287166    -0.15300
C1153       C  0.11096205  0.21604152  0.34990256     0.35330
C1154       C  0.08304988  0.22534314  0.37708540    -0.26680
C1155       C  0.07723734  0.18380533  0.39758231    -0.15920
C1156       C  0.09409766  0.13072806  0.38963355     0.36410
N1157       N  0.08609798  0.08663961  0.40946193    -0.90170
H1158       H  0.13671775  0.08079592  0.35645554     0.17530
H1159       H  0.06757229  0.26578211  0.38254099     0.17520
N1160       N  0.11788410  0.25972361  0.32967204    -0.89200
H1161       H  0.03920309  0.08397077  0.41455901     0.34890
H1162       H  0.11022559  0.09547051  0.42881347     0.39990
H1163       H  0.14244450  0.29058327  0.34025443     0.39610
H1164       H  0.07392062  0.27446870  0.32472905     0.34500
C1165       C  0.59668730  0.82688426  0.14669660    -0.27230
C1166       C  0.65509916  0.80373482  0.15027960    -0.15300
C1167       C  0.68019912  0.77200717  0.12719803     0.35330
C1168       C  0.64602417  0.76476479  0.10105218    -0.26680
C1169       C  0.58897056  0.79051677  0.09716544    -0.15920
C1170       C  0.56387133  0.82162120  0.12053329     0.36410
N1171       N  0.50567041  0.84913228  0.11760757    -0.90170
H1172       H  0.57713039  0.85161765  0.16406692     0.17530
H1173       H  0.66514003  0.74085772  0.08323476     0.17520
N1174       N  0.73988496  0.74743173  0.13017455    -0.89200
H1175       H  0.49549308  0.87203619  0.13637062     0.34890
H1176       H  0.47100911  0.82000909  0.11592706     0.39990
H1177       H  0.77286770  0.77820805  0.12912164     0.39610
H1178       H  0.74886965  0.72195720  0.11227036     0.34500
C1179       C  0.79984370  0.96192093  0.12696337    -0.27230
C1180       C  0.83281071  0.95518585  0.15330973    -0.15300
C1181       C  0.89659842  0.96822765  0.15387372     0.35330
C1182       C  0.92703385  0.97778607  0.12734687    -0.26680
C1183       C  0.89516559  0.97901159  0.10056151    -0.15920
C1184       C  0.83006040  0.97428409  0.10058969     0.36410
N1185       N  0.79328829  0.97875752  0.07449173    -0.90170
H1186       H  0.75063481  0.95402277  0.12632140     0.17530
H1187       H  0.97671467  0.98346954  0.12761333     0.17520
N1188       N  0.93232729  0.97042552  0.18056252    -0.89200
H1189       H  0.77424516  0.94073502  0.07010656     0.34890
H1190       H  0.81977937  0.98956942  0.05639928     0.39990
H1191       H  0.90361896  0.97377688  0.19887596     0.39610
H1192       H  0.95665507  0.00695480  0.18062082     0.34500
C1193       C  0.99374669  0.80268681  0.26196112    -0.27230
C1194       C  0.94034879  0.77231559  0.25743571    -0.15300
C1195       C  0.94581476  0.71582256  0.25383788     0.35330
C1196       C  0.00422502  0.69158125  0.25437935    -0.26680
C1197       C  0.05818550  0.72178362  0.25978621    -0.15920
C1198       C  0.05175065  0.77857845  0.26491419     0.36410
N1199       N  0.10089087  0.81413880  0.27369333    -0.90170
H1200       H  0.98999262  0.84612057  0.26458264     0.17530
H1201       H  0.00734900  0.64842004  0.25054986     0.17520
N1202       N  0.89330848  0.68215809  0.24857323    -0.89200
H1203       H  0.10284587  0.84540665  0.25851773     0.34890
H1204       H  0.14392116  0.79625568  0.27420587     0.39990
H1205       H  0.87085611  0.69577890  0.22970959     0.39610
H1206       H  0.86386810  0.68601177  0.26659665     0.34500
C1207       C  0.55993723  0.02533863  0.27095721    -0.27230
C1208       C  0.55726569  0.97016991  0.26304987    -0.15300
C1209       C  0.49889155  0.94768862  0.25613135     0.35330
C1210       C  0.44631409  0.98041767  0.25648021    -0.26680
C1211       C  0.44865820  0.03522769  0.26438161    -0.15920
C1212       C  0.50680740  0.05819217  0.27150717     0.36410
N1213       N  0.51425358  0.11443200  0.27880541    -0.90170
H1214       H  0.60407714  0.04377895  0.27595567     0.17530
H1215       H  0.40356762  0.96338247  0.24866093     0.17520
N1216       N  0.49104895  0.89185940  0.24852183    -0.89200
H1217       H  0.53235172  0.11682677  0.30008224     0.34890
H1218       H  0.47199177  0.13450907  0.27938336     0.39990
H1219       H  0.51001262  0.86826685  0.26521995     0.39610
H1220       H  0.51384354  0.88389726  0.22874220     0.34500
C1221       C  0.60071542  0.88546046  0.35222825    -0.27230
C1222       C  0.65720858  0.91247046  0.34836635    -0.15300
C1223       C  0.68001510  0.94613756  0.37129209     0.35330
C1224       C  0.64623774  0.95160782  0.39710750    -0.26680
C1225       C  0.58917050  0.92601100  0.40091768    -0.15920
C1226       C  0.56551372  0.89294959  0.37806084     0.36410
N1227       N  0.50645221  0.86709105  0.38101169    -0.90170
H1228       H  0.58304128  0.85996410  0.33470420     0.17530
H1229       H  0.66416110  0.97810884  0.41413715     0.17520
N1230       N  0.73703099  0.97572913  0.36839152    -0.89200
H1231       H  0.49803706  0.84147885  0.36309149     0.34890
H1232       H  0.47271761  0.89713320  0.38010807     0.39990
H1233       H  0.77316934  0.94793486  0.36813991     0.39610
H1234       H  0.74484456  0.00089404  0.38656086     0.34500
C1235       C  0.81497228  0.84457611  0.37348945    -0.27230
C1236       C  0.85002346  0.84689515  0.34756895    -0.15300
C1237       C  0.91471660  0.84530941  0.34956978     0.35330
C1238       C  0.94270886  0.83652535  0.37675279    -0.26680
C1239       C  0.90727926  0.82896171  0.40234587    -0.15920
C1240       C  0.84288451  0.83853584  0.40103408     0.36410
N1241       N  0.80451756  0.84142724  0.42682590    -0.90170
H1242       H  0.76509671  0.84722451  0.37232146     0.17530
H1243       H  0.99227923  0.83107583  0.37722900     0.17520
N1244       N  0.95268842  0.84569316  0.32405757    -0.89200
H1245       H  0.77799125  0.87655012  0.42523271     0.34890
H1246       H  0.83146059  0.84832953  0.44548532     0.39990
H1247       H  0.94343262  0.88080502  0.31223151     0.39610
H1248       H  0.93929928  0.81218706  0.31169440     0.34500
C1249       C  0.65538832  0.26241510  0.10150700    -0.27230
C1250       C  0.59381670  0.27863316  0.09861569    -0.15300
C1251       C  0.56198592  0.29863973  0.12354943     0.35330
C1252       C  0.59295150  0.30573756  0.15003715    -0.26680
C1253       C  0.65598282  0.29463994  0.15249601    -0.15920
C1254       C  0.68710622  0.27032927  0.12833556     0.36410
N1255       N  0.75094868  0.25540131  0.13076658    -0.90170
H1256       H  0.67941449  0.24601019  0.08258050     0.17530
H1257       H  0.56770170  0.32322240  0.16831685     0.17520
N1258       N  0.49795162  0.31300470  0.12203674    -0.89200
H1259       H  0.76691016  0.23895945  0.11095753     0.34890
H1260       H  0.75382078  0.22474564  0.14640993     0.39990
H1261       H  0.49395602  0.35405124  0.12721267     0.39610
H1262       H  0.47415023  0.29131889  0.13810778     0.34500
C1263       C  0.82899769  0.46109505  0.09622707    -0.27230
C1264       C  0.89016555  0.47895981  0.09847555    -0.15300
C1265       C  0.91630951  0.48669796  0.12667854     0.35330
C1266       C  0.88272531  0.47330594  0.15177102    -0.26680
C1267       C  0.82328201  0.45131602  0.14967238    -0.15920
C1268       C  0.79534817  0.44689531  0.12143122     0.36410
N1269       N  0.73484687  0.42469202  0.11732859    -0.90170
H1270       H  0.80871113  0.45450903  0.07472886     0.17530
H1271       H  0.90456320  0.47779388  0.17309357     0.17520
N1272       N  0.97768578  0.50690949  0.13054401    -0.89200
H1273       H  0.70309196  0.44876906  0.12864701     0.34890
H1274       H  0.73397302  0.38564018  0.12587997     0.39990
H1275       H  0.98034270  0.54471802  0.12056959     0.39610
H1276       H  0.00853248  0.48048743  0.12029378     0.34500
C1277       C  0.99664718  0.30406734  0.25559802    -0.27230
C1278       C  0.94158621  0.27518613  0.25938811    -0.15300
C1279       C  0.94512164  0.21848517  0.26405597     0.35330
C1280       C  0.00251837  0.19234296  0.26346522    -0.26680
C1281       C  0.05723276  0.22124562  0.25896640    -0.15920
C1282       C  0.05421032  0.27789942  0.25535366     0.36410
N1283       N  0.10924048  0.30849333  0.24981602    -0.90170
H1284       H  0.99467717  0.34725101  0.25199715     0.17530
H1285       H  0.00432817  0.14894313  0.26630881     0.17520
N1286       N  0.89137257  0.18570650  0.26805911    -0.89200
H1287       H  0.09971669  0.34986949  0.24963351     0.34890
H1288       H  0.12363693  0.29864305  0.22853960     0.39990
H1289       H  0.86323065  0.19006331  0.24963761     0.39610
H1290       H  0.86782393  0.19898886  0.28677315     0.34500
C1291       C  0.73742681  0.59260297  0.21824382    -0.27230
C1292       C  0.75508038  0.56598133  0.24416525    -0.15300
C1293       C  0.76014556  0.59673565  0.27044655     0.35330
C1294       C  0.74698468  0.65211248  0.27018587    -0.26680
C1295       C  0.73079470  0.67867125  0.24412954    -0.15920
C1296       C  0.72518771  0.64813716  0.21789002     0.36410
N1297       N  0.70505260  0.67159764  0.19074227    -0.90170
H1298       H  0.73129451  0.56967311  0.19807063     0.17530
H1299       H  0.75307427  0.67523822  0.29029928     0.17520
N1300       N  0.77726768  0.57303551  0.29789252    -0.89200
H1301       H  0.74266184  0.67167656  0.17635411     0.34890
H1302       H  0.69082884  0.71145158  0.19370115     0.39990
H1303       H  0.82098393  0.55572811  0.29562689     0.39610
H1304       H  0.74522639  0.54306019  0.30318525     0.34500
C1305       C  0.72943305  0.09197261  0.26667881    -0.27550
C1306       C  0.75809475  0.06575014  0.24289619    -0.15300
C1307       C  0.77440354  0.09590332  0.21784441     0.35330
C1308       C  0.76196276  0.15126774  0.21727084    -0.26680
C1309       C  0.73500462  0.17829848  0.24139733    -0.15920
C1310       C  0.71690711  0.14771739  0.26613160     0.36410
N1311       N  0.68676712  0.17307857  0.29073509    -0.90170
H1312       H  0.71476806  0.06833217  0.28541600     0.17530
H1313       H  0.77619598  0.17376273  0.19805477     0.17520
N1314       N  0.80443700  0.07201782  0.19281127    -0.89200
H1315       H  0.67823575  0.14503074  0.30734769     0.34890
H1316       H  0.64356262  0.18624951  0.28349429     0.39990
H1317       H  0.81427435  0.03159513  0.19668396     0.39610
H1318       H  0.84725414  0.09105329  0.19038362     0.34500
C1319       C  0.50132000  0.44221226  0.26678610    -0.27230
C1320       C  0.55781538  0.46961759  0.26573014    -0.15300
C1321       C  0.55757602  0.52687525  0.26539936     0.35330
C1322       C  0.50104582  0.55490739  0.26408808    -0.26680
C1323       C  0.44442274  0.52740603  0.26430313    -0.15920
C1324       C  0.44511619  0.47015292  0.26655658     0.36410
N1325       N  0.38976488  0.43865445  0.26673427    -0.90170
H1326       H  0.50077660  0.39844414  0.26714927     0.17530
H1327       H  0.50119076  0.59857924  0.26267005     0.17520
N1328       N  0.61460280  0.55647090  0.26500600    -0.89200
H1329       H  0.36580203  0.44651639  0.24736299     0.34890
H1330       H  0.36304092  0.44981959  0.28488475     0.39990
H1331       H  0.63510818  0.55175279  0.28561788     0.39610
H1332       H  0.60648425  0.59783974  0.26269507     0.34500
C1333       C  0.60096216  0.37845365  0.35468319    -0.27230
C1334       C  0.66018367  0.40061535  0.35104554    -0.15300
C1335       C  0.68958998  0.42526259  0.37549450     0.35330
C1336       C  0.65660738  0.43354328  0.40143350    -0.26680
C1337       C  0.59503264  0.41688863  0.40423580    -0.15920
C1338       C  0.56842424  0.38578347  0.38131493     0.36410
N1339       N  0.50899721  0.36134773  0.38497837    -0.90170
H1340       H  0.57915281  0.35700048  0.33662790     0.17530
H1341       H  0.67899363  0.45528136  0.41921883     0.17520
N1342       N  0.75302072  0.44241324  0.37391233    -0.89200
H1343       H  0.51456351  0.31952703  0.38321389     0.34890
H1344       H  0.48088255  0.37335298  0.36754852     0.39990
H1345       H  0.77984415  0.40764611  0.37165475     0.39610
H1346       H  0.76706278  0.46102579  0.39349968     0.34500
C1347       C  0.89851674  0.37089082  0.35450888    -0.27230
C1348       C  0.86196862  0.32880568  0.34294075    -0.15300
C1349       C  0.86079657  0.27870847  0.35776273     0.35330
C1350       C  0.88824574  0.27400675  0.38525746    -0.26680
C1351       C  0.92078832  0.31688567  0.39792897    -0.15920
C1352       C  0.92972023  0.36468764  0.38164044     0.36410
N1353       N  0.96841439  0.40704802  0.39297903    -0.90170
H1354       H  0.90102490  0.40898550  0.34298806     0.17530
H1355       H  0.88474109  0.23579984  0.39668926     0.17520
N1356       N  0.83143952  0.23210343  0.34511262    -0.89200
H1357       H  0.96884631  0.43986114  0.37862216     0.34890
H1358       H  0.01357335  0.39233624  0.39367368     0.39990
H1359       H  0.79693483  0.21908149  0.35951441     0.39610
H1360       H  0.86432660  0.20140489  0.34331110     0.34500
loop_ 
_geom_bond_atom_site_label_1 
_geom_bond_atom_site_label_2 
_geom_bond_distance 
_geom_bond_site_symmetry_2 
_ccdc_geom_bond_type 
O1            C9   1.318       .  A
O1          Co21   2.110       .  S
O2           C10   1.265       .  A
O2          Co22   1.970       .  S
O3           C11   1.252       .  A
O3          Co23   2.052       .  S
O4           C12   1.291       .  A
O4          Co24   2.040       .  S
O5           C11   1.248       .  A
O5          Co22   1.976       .  S
O6           C12   1.286       .  A
O6          Co21   1.979       .  S
O7           C10   1.269       .  A
O7          Co24   2.017       .  S
O8            C9   1.279       .  A
O8          Co23   1.860       .  S
C9         C1348   1.486       .  S
C10        C1267   1.486       .  S
C11        C1278   1.492       .  S
C12        C1292   1.487       .  S
O13          C26   1.253       .  A
O13         Co21   2.049       .  S
O14          C27   1.291       .  A
O14         Co22   2.038       .  S
O15          C28   1.314       .  A
O15         Co23   2.095       .  S
O16          C29   1.263       .  A
O16         Co24   1.966       .  S
O17          C29   1.266       .  A
O17         Co22   2.006       .  S
O18          C28   1.280       .  A
O18         Co21   1.865       .  S
O19          C26   1.247       .  A
O19         Co24   1.976       .  S
O20          C27   1.283       .  A
O20         Co23   1.971       .  S
Co21         O25   2.028       .  S
Co22         O25   2.025       .  S
Co23         O25   2.025       .  S
Co24         O25   2.014       .  S
C26        C1320   1.490       .  S
C27        C1309   1.489       .  S
C28        C1334   1.483       .  S
C29        C1253   1.483       .  S
O30          C38   1.286   1_565  A
O30         Co50   2.038       .  S
O31          C39   1.254       .  A
O31         Co51   2.057       .  S
O32          C40   1.316       .  A
O32         Co52   2.099       .  S
O33          C41   1.258       .  A
O33         Co53   1.949       .  S
O34          C40   1.281       .  A
O34         Co51   1.874       .  S
O35          C41   1.271       .  A
O35         Co50   2.019       .  S
O36          C39   1.239       .  A
O36         Co53   1.956       .  S
O37          C38   1.281   1_565  A
O37         Co52   1.971       .  S
C38        C1306   1.471       .  S
C39        C1194   1.483       .  S
C40        C1236   1.476       .  S
C41        C1180   1.482       .  S
O42          C55   1.257       .  A
O42         Co50   1.954       .  S
O43          C56   1.316       .  A
O43         Co51   2.104       .  S
O44          C57   1.256       .  A
O44         Co52   2.060       .  S
O45          C58   1.290       .  A
O45         Co53   2.044       .  S
O46          C58   1.283       .  A
O46         Co51   1.970       .  S
O47          C57   1.243       .  A
O47         Co50   1.968       .  S
O48          C55   1.264       .  A
O48         Co53   2.012       .  S
O49          C56   1.276       .  A
O49         Co52   1.852       .  S
Co50         O54   2.018       .  S
Co51         O54   2.042       .  S
Co52         O54   2.024       .  S
Co53         O54   2.026       .  S
C55        C1166   1.481       .  S
C56        C1222   1.480       .  S
C57        C1208   1.497       .  S
C58        C1295   1.478       .  S
O59          C67   1.288       .  A
O59         Co79   2.042       .  S
O60          C68   1.256       .  A
O60         Co80   2.062       .  S
O61          C69   1.309       .  A
O61         Co81   2.089       .  S
O62          C70   1.261       .  A
O62         Co82   1.963       .  S
O63          C69   1.281       .  A
O63         Co80   1.894       .  S
O64          C70   1.265       .  A
O64         Co79   2.011       .  S
O65          C68   1.241       .  A
O65         Co82   1.972       .  S
O66          C67   1.279       .  A
O66         Co81   1.966       .  S
C67        C1124   1.475       .  S
C68        C1211   1.491       .  S
C69        C1141   1.474       .  S
C70        C1085   1.483       .  S
O71          C84   1.261       .  A
O71         Co79   1.967       .  S
O72          C85   1.308       .  A
O72         Co80   2.086       .  S
O73          C86   1.253       .  A
O73         Co81   2.055       .  S
O74          C87   1.293   1_545  A
O74         Co82   2.057       .  S
O75          C87   1.278   1_545  A
O75         Co80   1.958       .  S
O76          C86   1.244       .  A
O76         Co79   1.974       .  S
O77          C84   1.268       .  A
O77         Co82   2.022       .  S
O78          C85   1.280       .  A
O78         Co81   1.884       .  S
Co79         O83   2.044       .  S
Co80         O83   2.048       .  S
Co81         O83   2.036       .  S
Co82         O83   2.021       .  S
C84        C1096   1.477       .  S
C85        C1152   1.472       .  S
C86        C1281   1.485       .  S
C87        C1113   1.467       .  S
O88          C96   1.289       .  A
O88        Co108   2.033       .  S
O89          C97   1.251       .  A
O89        Co109   2.048       .  S
O90          C98   1.312       .  A
O90        Co110   2.095       .  S
O91          C99   1.253       .  A
O91        Co111   1.953       .  S
O92          C98   1.280       .  A
O92        Co109   1.883       .  S
O93          C99   1.268       .  A
O93        Co108   2.032       .  S
O94          C97   1.244       .  A
O94        Co111   1.968       .  S
O95          C96   1.285       .  A
O95        Co110   1.969       .  S
C96        C1127   1.479       .  S
C97        C1197   1.496       .  S
C98        C1068   1.478       .  S
C99        C1040   1.474       .  S
O100        C113   1.259       .  A
O100       Co108   1.964       .  S
O101        C114   1.309       .  A
O101       Co109   2.079       .  S
O102        C115   1.252       .  A
O102       Co110   2.046       .  S
O103        C116   1.287       .  A
O103       Co111   2.025       .  S
O104        C116   1.280       .  A
O104       Co109   1.970       .  S
O105        C115   1.246       .  A
O105       Co108   1.978       .  S
O106        C113   1.269       .  A
O106       Co111   2.023       .  S
O107        C114   1.285       .  A
O107       Co110   1.882       .  S
Co108       O112   2.036       .  S
Co109       O112   2.030       .  S
Co110       O112   2.036       .  S
Co111       O112   2.015       .  S
C113       C1029   1.495       .  S
C114       C1054   1.472       .  S
C115       C1323   1.494       .  S
C116       C1110   1.486       .  S
O117        C125   1.275       .  A
O117       Co137   1.848       .  S
O118        C126   1.267       .  A
O118       Co138   2.018       .  S
O119        C127   1.284   1_554  A
O119       Co139   1.975       .  S
O120        C128   1.242   1_556  A
O120       Co140   1.965       .  S
O121        C127   1.288       .  A
O121       Co138   2.032       .  S
O122        C128   1.253       .  A
O122       Co137   2.058       .  S
O123        C126   1.259       .  A
O123       Co140   1.958       .  S
O124        C125   1.319       .  A
O124       Co139   2.113       .  S
C125       C1082   1.483       .  S
C126        C959   1.485       .  S
C127        C984   1.481       .  S
C128        C973   1.496       .  S
O129        C142   1.283   1_554  A
O129       Co137   1.965       .  S
O130        C143   1.249   1_556  A
O130       Co138   1.979       .  S
O131        C144   1.277       .  A
O131       Co139   1.853       .  S
O132        C145   1.267       .  A
O132       Co140   2.007       .  S
O133        C145   1.265       .  A
O133       Co138   1.973       .  S
O134        C144   1.318       .  A
O134       Co137   2.107       .  S
O135        C142   1.293       .  A
O135       Co140   2.056       .  S
O136        C143   1.254       .  A
O136       Co139   2.038       .  S
Co137       O141   2.025   1_554  S
Co138       O141   2.039       .  S
Co139       O141   2.022   1_554  S
Co140       O141   2.004       .  S
C142       C1001   1.482       .  S
C143       C1015   1.483       .  S
C144       C1250   1.475       .  S
C145        C942   1.479       .  S
O146        C154   1.280       .  A
O146       Co166   1.862       .  S
O147        C155   1.269       .  A
O147       Co167   2.013       .  S
O148        C156   1.285   1_554  A
O148       Co168   1.970       .  S
O149        C157   1.246   1_556  A
O149       Co169   1.977       .  S
O150        C156   1.290       .  A
O150       Co167   2.046       .  S
O151        C157   1.254       .  A
O151       Co166   2.046       .  S
O152        C155   1.265       .  A
O152       Co169   1.968       .  S
O153        C154   1.318       .  A
O153       Co168   2.107       .  S
C154       C1026   1.487       .  S
C155        C900   1.482       .  S
C156        C998   1.478       .  S
C157        C917   1.487       .  S
O158        C171   1.282   1_554  A
O158       Co166   1.968       .  S
O159        C172   1.243   1_556  A
O159       Co167   1.973       .  S
O160        C173   1.278       .  A
O160       Co168   1.857       .  S
O161        C174   1.264       .  A
O161       Co169   2.009       .  S
O162        C174   1.258       .  A
O162       Co167   1.959       .  S
O163        C173   1.316       .  A
O163       Co166   2.101       .  S
O164        C171   1.288       .  A
O164       Co169   2.036       .  S
O165        C172   1.254       .  A
O165       Co168   2.054       .  S
Co166       O170   2.031   1_554  S
Co167       O170   2.017       .  S
Co168       O170   2.026   1_554  S
Co169       O170   2.035       .  S
C171        C987   1.477       .  S
C172        C928   1.490       .  S
C173       C1169   1.478       .  S
C174        C889   1.480       .  S
O175        C183   1.273       .  A
O175       Co195   1.903       .  S
O176        C184   1.257       .  A
O176       Co196   1.972   1_655  S
O177        C185   1.258       .  A
O177       Co197   1.961   1_655  S
O178        C186   1.250   1_556  A
O178       Co198   1.960       .  S
O179        C185   1.261   1_456  A
O179       Co196   1.985       .  S
O180        C186   1.268       .  A
O180       Co195   2.076       .  S
O181        C184   1.253   1_565  A
O181       Co198   1.952       .  S
O182        C183   1.299   1_545  A
O182       Co197   2.075   1_655  S
C183       C1183   1.472       .  S
C184        C833   1.476       .  S
C185        C872   1.449       .  S
C186        C931   1.489       .  S
O187        C200   1.263       .  A
O187       Co195   1.970   1_455  S
O188        C201   1.249   1_556  A
O188       Co196   1.962       .  S
O189        C202   1.273       .  A
O189       Co197   1.902       .  S
O190        C203   1.260       .  A
O190       Co198   1.984   1_455  S
O191        C203   1.257   1_545  A
O191       Co196   1.951       .  S
O192        C202   1.303   1_565  A
O192       Co195   2.088   1_455  S
O193        C200   1.262   1_656  A
O193       Co198   1.983       .  S
O194        C201   1.263       .  A
O194       Co197   2.071       .  S
Co195       O199   2.072   1_554  S
Co196       O199   2.089   1_445  S
Co197       O199   2.069   1_444  S
Co198       O199   2.091       .  S
C200        C861   1.454       .  S
C201        C970   1.480       .  S
C202       C1099   1.473       .  S
C203        C847   1.485       .  S
O204        C212   1.282       .  A
O204       Co224   1.867       .  S
O205        C213   1.271   1_655  A
O205       Co225   2.031       .  S
O206        C214   1.279   1_454  A
O206       Co226   1.957   1_455  S
O207        C215   1.244   1_556  A
O207       Co227   1.968       .  S
O208        C214   1.289       .  A
O208       Co225   2.028       .  S
O209        C215   1.252       .  A
O209       Co224   2.059       .  S
O210        C213   1.256       .  A
O210       Co227   1.953       .  S
O211        C212   1.311       .  A
O211       Co226   2.092   1_455  S
C212       C1043   1.484       .  S
C213        C819   1.494       .  S
C214        C875   1.478   1_556  S
C215        C914   1.496       .  S
O216        C229   1.280   1_554  A
O216       Co224   1.956   1_655  S
O217        C230   1.245   1_556  A
O217       Co225   1.969       .  S
O218        C231   1.280       .  A
O218       Co226   1.892       .  S
O219        C232   1.270   1_455  A
O219       Co227   2.025       .  S
O220        C232   1.257       .  A
O220       Co225   1.958       .  S
O221        C231   1.311       .  A
O221       Co224   2.092   1_655  S
O222        C229   1.288   1_455  A
O222       Co227   2.034       .  S
O223        C230   1.254       .  A
O223       Co226   2.050       .  S
Co224       O228   2.027   1_454  S
Co225       O228   2.021       .  S
Co226       O228   2.040   1_554  S
Co227       O228   2.024   1_455  S
C229        C858   1.479       .  S
C230       C1012   1.490       .  S
C231       C1264   1.475       .  S
C232        C802   1.494       .  S
O233        C241   1.304       .  A
O233       Co253   2.068       .  S
O234        C242   1.260       .  A
O234       Co254   1.969       .  S
O235        C243   1.253       .  A
O235       Co255   2.057       .  S
O236        C244   1.288       .  A
O236       Co256   2.042       .  S
O237        C243   1.245       .  A
O237       Co254   1.980       .  S
O238        C244   1.276       .  A
O238       Co253   1.953       .  S
O239        C242   1.266       .  A
O239       Co256   2.012       .  S
O240        C241   1.281       .  A
O240       Co255   1.880       .  S
C241        C830   1.466       .  S
C242        C732   1.476       .  S
C243        C746   1.496       .  S
C244        C774   1.463       .  S
O245        C258   1.253       .  A
O245       Co253   2.052       .  S
O246        C259   1.290   1_545  A
O246       Co254   2.052       .  S
O247        C260   1.308       .  A
O247       Co255   2.084       .  S
O248        C261   1.260       .  A
O248       Co256   1.969       .  S
O249        C261   1.266       .  A
O249       Co254   2.014       .  S
O250        C260   1.279       .  A
O250       Co253   1.896       .  S
O251        C258   1.242       .  A
O251       Co256   1.972       .  S
O252        C259   1.279   1_545  A
O252       Co255   1.961       .  S
Co253       O257   2.049       .  S
Co254       O257   2.049       .  S
Co255       O257   2.038       .  S
Co256       O257   2.038       .  S
C258        C788   1.487       .  S
C259        C763   1.473       .  S
C260        C945   1.469       .  S
C261        C718   1.473       .  S
O262        C270   1.315       .  A
O262       Co282   2.093       .  S
O263        C271   1.256       .  A
O263       Co283   1.955       .  S
O264        C272   1.255       .  A
O264       Co284   2.048       .  S
O265        C273   1.286       .  A
O265       Co285   2.024       .  S
O266        C272   1.244       .  A
O266       Co283   1.971       .  S
O267        C273   1.284       .  A
O267       Co282   1.968       .  S
O268        C271   1.270       .  A
O268       Co285   2.023       .  S
O269        C270   1.279       .  A
O269       Co284   1.858       .  S
C270        C886   1.478       .  S
C271        C662   1.488       .  S
C272        C704   1.491       .  S
C273        C777   1.482       .  S
O274        C287   1.253       .  A
O274       Co282   2.041       .  S
O275        C288   1.285       .  A
O275       Co283   2.032       .  S
O276        C289   1.318       .  A
O276       Co284   2.111       .  S
O277        C290   1.258       .  A
O277       Co285   1.948       .  S
O278        C290   1.270       .  A
O278       Co283   2.029       .  S
O279        C289   1.280       .  A
O279       Co282   1.870       .  S
O280        C287   1.243       .  A
O280       Co285   1.968       .  S
O281        C288   1.285       .  A
O281       Co284   1.968       .  S
Co282       O286   2.028       .  S
Co283       O286   2.026       .  S
Co284       O286   2.019       .  S
Co285       O286   2.012       .  S
C287        C693   1.486       .  S
C288        C760   1.483       .  S
C289        C805   1.484       .  S
C290        C676   1.488       .  S
O291        C299   1.316       .  A
O291       Co311   2.106       .  S
O292        C300   1.259       .  A
O292       Co312   1.953       .  S
O293        C301   1.253       .  A
O293       Co313   2.041       .  S
O294        C302   1.287       .  A
O294       Co314   2.033       .  S
O295        C301   1.242       .  A
O295       Co312   1.967       .  S
O296        C302   1.282       .  A
O296       Co311   1.964       .  S
O297        C300   1.269       .  A
O297       Co314   2.032       .  S
O298        C299   1.281       .  A
O298       Co313   1.874       .  S
C299        C816   1.487       .  S
C300        C620   1.493       .  S
C301        C690   1.485       .  S
C302        C648   1.467       .  S
O303        C316   1.255       .  A
O303       Co311   2.048       .  S
O304        C317   1.286       .  A
O304       Co312   2.031       .  S
O305        C318   1.316       .  A
O305       Co313   2.101       .  S
O306        C319   1.255       .  A
O306       Co314   1.957       .  S
O307        C319   1.268       .  A
O307       Co312   2.023       .  S
O308        C318   1.278       .  A
O308       Co311   1.857       .  S
O309        C316   1.245       .  A
O309       Co314   1.970       .  S
O310        C317   1.286       .  A
O310       Co313   1.974       .  S
Co311       O315   2.022       .  S
Co312       O315   2.019       .  S
Co313       O315   2.034       .  S
Co314       O315   2.029       .  S
C316        C791   1.493       .  S
C317        C634   1.488       .  S
C318        C956   1.483       .  S
C319        C606   1.470       .  S
O320        C328   1.309       .  A
O320       Co340   2.087       .  S
O321        C329   1.260       .  A
O321       Co341   1.965       .  S
O322        C330   1.251       .  A
O322       Co342   2.047       .  S
O323        C331   1.288   1_565  A
O323       Co343   2.042       .  S
O324        C330   1.242       .  A
O324       Co341   1.972       .  S
O325        C331   1.277   1_565  A
O325       Co340   1.957       .  S
O326        C329   1.267       .  A
O326       Co343   2.010       .  S
O327        C328   1.280       .  A
O327       Co342   1.895       .  S
C328        C903   1.471       .  S
C329        C578   1.486       .  S
C330        C707   1.485       .  S
C331        C651   1.476       .  S
O332        C345   1.256       .  A
O332       Co340   2.061       .  S
O333        C346   1.292       .  A
O333       Co341   2.048       .  S
O334        C347   1.309       .  A
O334       Co342   2.082       .  S
O335        C348   1.260       .  A
O335       Co343   1.967       .  S
O336        C348   1.268       .  A
O336       Co341   2.022       .  S
O337        C347   1.281       .  A
O337       Co340   1.872       .  S
O338        C345   1.247       .  A
O338       Co343   1.977       .  S
O339        C346   1.282       .  A
O339       Co342   1.963       .  S
Co340       O344   2.028       .  S
Co341       O344   2.030       .  S
Co342       O344   2.049       .  S
Co343       O344   2.044       .  S
C345        C749   1.499       .  S
C346        C637   1.471       .  S
C347        C844   1.470       .  S
C348        C595   1.476       .  S
O349        C357   1.268       .  A
O349       Co369   2.022       .  S
O350        C358   1.283       .  A
O350       Co370   1.873       .  S
O351        C359   1.244       .  A
O351       Co371   1.970       .  S
O352        C360   1.286       .  A
O352       Co372   1.975       .  S
O353        C359   1.252       .  A
O353       Co370   2.050       .  S
O354        C360   1.288       .  A
O354       Co369   2.034       .  S
O355        C358   1.312   1_565  A
O355       Co372   2.089       .  S
O356        C357   1.258       .  A
O356       Co371   1.953   1_565  S
C357       C1225   1.479       .  S
C358        C721   1.476       .  S
C359        C564   1.490       .  S
C360        C536   1.485       .  S
O361        C374   1.246       .  A
O361       Co369   1.967       .  S
O362        C375   1.284       .  A
O362       Co370   1.966       .  S
O363        C376   1.267       .  A
O363       Co371   2.017       .  S
O364        C377   1.282       .  A
O364       Co372   1.882       .  S
O365        C377   1.310   1_545  A
O365       Co370   2.082       .  S
O366        C376   1.262       .  A
O366       Co369   1.965   1_545  S
O367        C374   1.250       .  A
O367       Co372   2.031       .  S
O368        C375   1.291       .  A
O368       Co371   2.040       .  S
Co369       O373   2.029       .  S
Co370       O373   2.026   1_545  S
Co371       O373   2.013   1_545  S
Co372       O373   2.030       .  S
C374        C522   1.487       .  S
C375        C550   1.488       .  S
C376       C1138   1.484       .  S
C377        C581   1.474       .  S
O378        C386   1.267       .  A
O378       Co398   2.016       .  S
O379        C387   1.280       .  A
O379       Co399   1.869       .  S
O380        C388   1.247       .  A
O380       Co400   1.977       .  S
O381        C389   1.281       .  A
O381       Co401   1.957       .  S
O382        C388   1.258       .  A
O382       Co399   2.057       .  S
O383        C389   1.293       .  A
O383       Co398   2.054       .  S
O384        C387   1.310       .  A
O384       Co401   2.091       .  S
O385        C386   1.260       .  A
O385       Co400   1.972       .  S
C386       C1057   1.475       .  S
C387        C609   1.484       .  S
C388        C494   1.491       .  S
C389        C539   1.472       .  S
O390        C403   1.239       .  A
O390       Co398   1.967       .  S
O391        C404   1.276       .  A
O391       Co399   1.962       .  S
O392        C405   1.269       .  A
O392       Co400   2.024       .  S
O393        C406   1.283       .  A
O393       Co401   1.885       .  S
O394        C406   1.310       .  A
O394       Co399   2.082       .  S
O395        C405   1.258       .  A
O395       Co398   1.953       .  S
O396        C403   1.251       .  A
O396       Co401   2.054       .  S
O397        C404   1.284       .  A
O397       Co400   2.033       .  S
Co398       O402   2.011       .  S
Co399       O402   2.024       .  S
Co400       O402   2.043       .  S
Co401       O402   2.047       .  S
C403        C508   1.486       .  S
C404        C553   1.462       .  S
C405       C1337   1.488       .  S
C406        C665   1.481       .  S
O407        C415   1.266   1_455  A
O407       Co427   2.015       .  S
O408        C416   1.279       .  A
O408       Co428   1.876       .  S
O409        C417   1.244       .  A
O409       Co429   1.978       .  S
O410        C418   1.282       .  A
O410       Co430   1.967   1_655  S
O411        C417   1.252       .  A
O411       Co428   2.049       .  S
O412        C418   1.289   1_455  A
O412       Co427   2.042       .  S
O413        C416   1.314       .  A
O413       Co430   2.099   1_655  S
O414        C415   1.263       .  A
O414       Co429   1.967       .  S
C415       C1351   1.474       .  S
C416        C735   1.479       .  S
C417        C567   1.489       .  S
C418        C469   1.469       .  S
O419        C432   1.245       .  A
O419       Co427   1.971       .  S
O420        C433   1.281   1_455  A
O420       Co428   1.966   1_455  S
O421        C434   1.264   1_655  A
O421       Co429   2.000       .  S
O422        C435   1.281       .  A
O422       Co430   1.880       .  S
O423        C435   1.311       .  A
O423       Co428   2.089   1_455  S
O424        C434   1.263       .  A
O424       Co427   1.976       .  S
O425        C432   1.256       .  A
O425       Co430   2.053       .  S
O426        C433   1.292       .  A
O426       Co429   2.048       .  S
Co427       O431   2.035   1_455  S
Co428       O431   2.031       .  S
Co429       O431   2.033       .  S
Co430       O431   2.040   1_455  S
C432        C497   1.493       .  S
C433        C480   1.487       .  S
C434       C1155   1.465       .  S
C435        C623   1.476       .  S
O436        C444   1.267       .  A
O436       Co456   2.000   1_655  S
O437        C445   1.282       .  A
O437       Co457   1.888       .  S
O438        C446   1.245       .  A
O438       Co458   1.964       .  S
O439        C447   1.279       .  A
O439       Co459   1.959   1_655  S
O440        C446   1.253       .  A
O440       Co457   2.049       .  S
O441        C447   1.291   1_455  A
O441       Co456   2.051       .  S
O442        C445   1.308       .  A
O442       Co459   2.084   1_655  S
O443        C444   1.261       .  A
O443       Co458   1.966       .  S
C444       C1239   1.485       .  S
C445        C679   1.472       .  S
C446        C511   1.494       .  S
C447        C483   1.472       .  S
O448        C461   1.241       .  A
O448       Co456   1.970       .  S
O449        C462   1.282       .  A
O449       Co457   1.973   1_455  S
O450        C463   1.268   1_655  A
O450       Co458   2.017       .  S
O451        C464   1.282       .  A
O451       Co459   1.882       .  S
O452        C464   1.312       .  A
O452       Co457   2.089   1_455  S
O453        C463   1.260       .  A
O453       Co456   1.968       .  S
O454        C461   1.251       .  A
O454       Co459   2.052       .  S
O455        C462   1.289   1_655  A
O455       Co458   2.032       .  S
Co456       O460   2.020   1_455  S
Co457       O460   2.038       .  S
Co458       O460   2.028       .  S
Co459       O460   2.037   1_455  S
C461        C525   1.478       .  S
C462        C466   1.491       .  S
C463       C1071   1.471       .  S
C464        C592   1.478       .  S
C465        C466   1.411   1_655  A
C465        C470   1.398       .  A
C465        H472   1.084       .  S
C466        C467   1.416       .  A
C467        C468   1.408       .  A
C467        N474   1.437       .  S
C468        C469   1.403   1_455  A
C468        H473   1.084       .  S
C469        C470   1.408       .  A
C470        N471   1.437       .  S
N471        H475   1.046       .  S
N471        H476   1.043       .  S
N474        H477   1.046       .  S
N474        H478   1.046       .  S
C479        C480   1.408       .  A
C479        C484   1.400   1_545  A
C479        H486   1.083       .  S
C480        C481   1.420   1_655  A
C481        C482   1.397   1_445  A
C481        N488   1.432       .  S
C482        C483   1.402       .  A
C482        H487   1.085   1_655  S
C483        C484   1.412       .  A
C484        N485   1.436       .  S
N485        H489   1.046       .  S
N485        H490   1.040       .  S
N488        H491   1.043       .  S
N488        H492   1.045       .  S
C493        C494   1.407       .  A
C493        C498   1.405       .  A
C493        H500   1.081       .  S
C494        C495   1.417       .  A
C495        C496   1.409       .  A
C495        N502   1.439       .  S
C496        C497   1.409       .  A
C496        H501   1.083       .  S
C497        C498   1.417       .  A
C498        N499   1.437       .  S
N499        H503   1.045       .  S
N499        H504   1.043       .  S
N502        H505   1.043       .  S
N502        H506   1.046       .  S
C507        C508   1.398       .  A
C507        C512   1.403       .  A
C507        H514   1.084       .  S
C508        C509   1.411       .  A
C509        C510   1.407       .  A
C509        N516   1.435       .  S
C510        C511   1.405       .  A
C510        H515   1.084       .  S
C511        C512   1.431       .  A
C512        N513   1.438       .  S
N513        H517   1.046       .  S
N513        H518   1.033       .  S
N516        H519   1.045       .  S
N516        H520   1.046       .  S
C521        C522   1.400       .  A
C521        C526   1.394       .  A
C521        H528   1.084       .  S
C522        C523   1.422       .  A
C523        C524   1.410       .  A
C523        N530   1.438       .  S
C524        C525   1.399       .  A
C524        H529   1.084       .  S
C525        C526   1.414       .  A
C526        N527   1.428       .  S
N527        H531   1.041       .  S
N527        H532   1.044       .  S
N530        H533   1.046       .  S
N530        H534   1.046       .  S
C535        C536   1.403       .  A
C535        C540   1.404       .  A
C535        H542   1.083       .  S
C536        C537   1.419       .  A
C537        C538   1.404       .  A
C537        N544   1.437       .  S
C538        C539   1.397       .  A
C538        H543   1.083       .  S
C539        C540   1.413       .  A
C540        N541   1.439       .  S
N541        H545   1.046       .  S
N541        H546   1.045       .  S
N544        H547   1.045       .  S
N544        H548   1.046       .  S
C549        C550   1.413       .  A
C549        C554   1.399       .  A
C549        H556   1.083       .  S
C550        C551   1.415       .  A
C551        C552   1.403       .  A
C551        N558   1.438       .  S
C552        C553   1.401       .  A
C552        H557   1.084       .  S
C553        C554   1.408       .  A
C554        N555   1.438       .  S
N555        H559   1.046       .  S
N555        H560   1.043       .  S
N558        H561   1.046       .  S
N558        H562   1.046       .  S
C563        C564   1.410       .  A
C563        C568   1.404       .  A
C563        H570   1.084       .  S
C564        C565   1.418       .  A
C565        C566   1.406       .  A
C565        N572   1.439       .  S
C566        C567   1.408       .  A
C566        H571   1.084       .  S
C567        C568   1.411       .  A
C568        N569   1.432       .  S
N569        H573   1.045       .  S
N569        H574   1.046       .  S
N572        H575   1.042   1_545  S
N572        H576   1.046       .  S
C577        C578   1.409       .  A
C577        C582   1.404       .  A
C577        H584   1.083       .  S
C578        C579   1.412       .  A
C579        C580   1.400       .  A
C579        N586   1.438       .  S
C580        C581   1.403       .  A
C580        H585   1.084       .  S
C581        C582   1.414       .  A
C582        N583   1.436       .  S
N583        H587   1.046       .  S
N583        H588   1.040       .  S
N586        H589   1.046       .  S
N586        H590   1.046       .  S
C591        C592   1.404       .  A
C591        C596   1.411       .  A
C591        H598   1.084       .  S
C592        C593   1.412       .  A
C593        C594   1.400       .  A
C593        N600   1.439       .  S
C594        C595   1.400       .  A
C594        H599   1.083       .  S
C595        C596   1.409       .  A
C596        N597   1.432       .  S
N597        H601   1.046       .  S
N597        H602   1.045       .  S
N600        H603   1.045       .  S
N600        H604   1.046       .  S
C605        C606   1.402       .  A
C605        C610   1.408       .  A
C605        H612   1.080       .  S
C606        C607   1.406       .  A
C607        C608   1.391       .  A
C607        N614   1.440       .  S
C608        C609   1.406       .  A
C608        H613   1.084       .  S
C609        C610   1.424       .  A
C610        N611   1.437       .  S
N611        H615   1.045       .  S
N611        H616   1.039       .  S
N614        H617   1.045       .  S
N614        H618   1.046       .  S
C619        C620   1.403       .  A
C619        C624   1.394       .  A
C619        H626   1.083       .  S
C620        C621   1.424       .  A
C621        C622   1.407       .  A
C621        N628   1.428       .  S
C622        C623   1.399       .  A
C622        H627   1.084       .  S
C623        C624   1.409       .  A
C624        N625   1.435       .  S
N625        H629   1.046   1_455  S
N625        H630   1.044   1_455  S
N628        H631   1.045       .  S
N628        H632   1.041       .  S
C633        C634   1.406       .  A
C633        C638   1.402       .  A
C633        H640   1.084       .  S
C634        C635   1.423       .  A
C635        C636   1.393       .  A
C635        N642   1.432       .  S
C636        C637   1.393       .  A
C636        H641   1.077       .  S
C637        C638   1.420       .  A
C638        N639   1.438       .  S
N639        H643   1.045       .  S
N639        H644   1.039       .  S
N642        H645   1.045       .  S
N642        H646   1.043       .  S
C647        C648   1.400       .  A
C647        C652   1.402       .  A
C647        H654   1.084       .  S
C648        C649   1.408       .  A
C649        C650   1.404       .  A
C649        N656   1.437       .  S
C650        C651   1.405       .  A
C650        H655   1.084       .  S
C651        C652   1.415       .  A
C652        N653   1.438       .  S
N653        H657   1.046       .  S
N653        H658   1.045       .  S
N656        H659   1.045       .  S
N656        H660   1.046       .  S
C661        C662   1.407       .  A
C661        C666   1.405       .  A
C661        H668   1.084       .  S
C662        C663   1.414       .  A
C663        C664   1.400       .  A
C663        N670   1.439       .  S
C664        C665   1.404       .  A
C664        H669   1.085       .  S
C665        C666   1.417       .  A
C666        N667   1.434       .  S
N667        H671   1.045       .  S
N667        H672   1.039       .  S
N670        H673   1.046       .  S
N670        H674   1.046       .  S
C675        C676   1.405       .  A
C675        C680   1.395       .  A
C675        H682   1.083       .  S
C676        C677   1.420       .  A
C677        C678   1.413       .  A
C677        N684   1.437       .  S
C678        C679   1.402       .  A
C678        H683   1.084       .  S
C679        C680   1.407       .  A
C680        N681   1.437       .  S
N681        H685   1.046   1_655  S
N681        H686   1.044   1_655  S
N684        H687   1.046       .  S
N684        H688   1.046       .  S
C689        C690   1.408       .  A
C689        C694   1.404       .  A
C689        H696   1.085       .  S
C690        C691   1.417   1_455  A
C691        C692   1.402       .  A
C691        N698   1.439       .  S
C692        C693   1.408       .  A
C692        H697   1.085       .  S
C693        C694   1.418   1_655  A
C694        N695   1.439       .  S
N695        H699   1.046       .  S
N695        H700   1.041   1_455  S
N698        H701   1.040   1_655  S
N698        H702   1.046       .  S
C703        C704   1.409       .  A
C703        C708   1.406       .  A
C703        H710   1.084       .  S
C704        C705   1.415       .  A
C705        C706   1.402       .  A
C705        N712   1.433       .  S
C706        C707   1.406       .  A
C706        H711   1.084       .  S
C707        C708   1.416       .  A
C708        N709   1.439       .  S
N709        H713   1.046       .  S
N709        H714   1.043       .  S
N712        H715   1.046       .  S
N712        H716   1.045       .  S
C717        C718   1.403       .  A
C717        C722   1.410   1_545  A
C717        H724   1.082   1_545  S
C718        C719   1.411       .  A
C719        C720   1.385       .  A
C719        N726   1.429       .  S
C720        C721   1.400       .  A
C720        H725   1.085       .  S
C721        C722   1.422   1_545  A
C722        N723   1.437       .  S
N723        H727   1.045       .  S
N723        H728   1.040       .  S
N726        H729   1.041       .  S
N726        H730   1.045       .  S
C731        C732   1.397       .  A
C731        C736   1.390       .  A
C731        H738   1.083       .  S
C732        C733   1.412       .  A
C733        C734   1.404       .  A
C733        N740   1.424       .  S
C734        C735   1.404       .  A
C734        H739   1.084       .  S
C735        C736   1.418       .  A
C736        N737   1.432       .  S
N737        H741   1.042       .  S
N737        H742   1.044       .  S
N740        H743   1.044       .  S
N740        H744   1.045       .  S
C745        C746   1.408   1_565  A
C745        C750   1.409       .  A
C745        H752   1.083       .  S
C746        C747   1.417   1_655  A
C747        C748   1.409       .  A
C747        N754   1.437       .  S
C748        C749   1.411   1_545  A
C748        H753   1.084       .  S
C749        C750   1.420   1_455  A
C750        N751   1.439       .  S
N751        H755   1.046       .  S
N751        H756   1.042   1_655  S
N754        H757   1.043   1_455  S
N754        H758   1.045       .  S
C759        C760   1.401       .  A
C759        C764   1.395       .  A
C759        H766   1.084       .  S
C760        C761   1.423       .  A
C761        C762   1.399       .  A
C761        N768   1.433       .  S
C762        C763   1.399       .  A
C762        H767   1.083       .  S
C763        C764   1.421       .  A
C764        N765   1.438       .  S
N765        H769   1.046       .  S
N765        H770   1.035       .  S
N768        H771   1.044       .  S
N768        H772   1.045       .  S
C773        C774   1.389       .  A
C773        C778   1.395       .  A
C773        H780   1.073       .  S
C774        C775   1.417       .  A
C775        C776   1.401       .  A
C775        N782   1.438       .  S
C776        C777   1.406       .  A
C776        H781   1.084       .  S
C777        C778   1.419       .  A
C778        N779   1.438       .  S
N779        H783   1.045       .  S
N779        H784   1.046       .  S
N782        H785   1.041       .  S
N782        H786   1.045       .  S
C787        C788   1.406       .  A
C787        C792   1.406       .  A
C787        H794   1.083       .  S
C788        C789   1.415       .  A
C789        C790   1.406       .  A
C789        N796   1.438       .  S
C790        C791   1.410       .  A
C790        H795   1.084       .  S
C791        C792   1.419       .  A
C792        N793   1.440       .  S
N793        H797   1.046       .  S
N793        H798   1.042       .  S
N796        H799   1.043       .  S
N796        H800   1.045       .  S
C801        C802   1.412       .  A
C801        C806   1.410       .  A
C801        H808   1.084       .  S
C802        C803   1.419       .  A
C803        C804   1.391       .  A
C803        N810   1.434       .  S
C804        C805   1.403       .  A
C804        H809   1.085       .  S
C805        C806   1.416       .  A
C806        N807   1.435       .  S
N807        H811   1.045       .  S
N807        H812   1.040       .  S
N810        H813   1.046       .  S
N810        H814   1.044       .  S
C815        C816   1.404       .  A
C815        C820   1.398       .  A
C815        H822   1.085       .  S
C816        C817   1.418       .  A
C817        C818   1.411       .  A
C817        N824   1.435       .  S
C818        C819   1.410       .  A
C818        H823   1.084       .  S
C819        C820   1.416       .  A
C820        N821   1.439       .  S
N821        H825   1.046       .  S
N821        H826   1.046       .  S
N824        H827   1.039       .  S
N824        H828   1.046       .  S
C829        C830   1.396       .  A
C829        C834   1.391       .  A
C829        H836   1.085       .  S
C830        C831   1.419       .  A
C831        C832   1.404       .  A
C831        N838   1.438       .  S
C832        C833   1.403       .  A
C832        H837   1.084       .  S
C833        C834   1.419       .  A
C834        N835   1.440   1_545  S
N835        H839   1.046       .  S
N835        H840   1.046       .  S
N838        H841   1.040       .  S
N838        H842   1.046       .  S
C843        C844   1.406       .  A
C843        C848   1.415       .  A
C843        H850   1.083       .  S
C844        C845   1.403       .  A
C845        C846   1.386       .  A
C845        N852   1.435   1_565  S
C846        C847   1.408       .  A
C846        H851   1.084   1_565  S
C847        C848   1.415       .  A
C848        N849   1.436       .  S
N849        H853   1.046       .  S
N849        H854   1.045       .  S
N852        H855   1.046       .  S
N852        H856   1.046       .  S
C857        C858   1.407   1_554  A
C857        C862   1.398       .  A
C857        H864   1.084       .  S
C858        C859   1.415   1_655  A
C859        C860   1.395       .  A
C859        N866   1.433       .  S
C860        C861   1.398   1_556  A
C860        H865   1.084       .  S
C861        C862   1.413   1_455  A
C862        N863   1.438       .  S
N863        H867   1.045       .  S
N863        H868   1.042       .  S
N866        H869   1.046       .  S
N866        H870   1.045       .  S
C871        C872   1.402   1_455  A
C871        C876   1.394       .  A
C871        H878   1.085       .  S
C872        C873   1.405   1_554  A
C873        C874   1.393       .  A
C873        N880   1.439       .  S
C874        C875   1.412   1_556  A
C874        H879   1.084       .  S
C875        C876   1.415   1_655  A
C876        N877   1.433       .  S
N877        H881   1.044       .  S
N877        H882   1.046       .  S
N880        H883   1.044       .  S
N880        H884   1.045       .  S
C885        C886   1.403       .  A
C885        C890   1.410       .  A
C885        H892   1.084       .  S
C886        C887   1.418       .  A
C887        C888   1.392       .  A
C887        N894   1.441       .  S
C888        C889   1.400       .  A
C888        H893   1.083       .  S
C889        C890   1.417       .  A
C890        N891   1.437       .  S
N891        H895   1.046       .  S
N891        H896   1.045       .  S
N894        H897   1.042       .  S
N894        H898   1.046       .  S
C899        C900   1.402       .  A
C899        C904   1.396       .  A
C899        H906   1.084       .  S
C900        C901   1.428       .  A
C901        C902   1.402       .  A
C901        N908   1.438       .  S
C902        C903   1.396       .  A
C902        H907   1.080       .  S
C903        C904   1.411       .  A
C904        N905   1.430       .  S
N905        H909   1.043       .  S
N905        H910   1.045       .  S
N908        H911   1.036       .  S
N908        H912   1.045       .  S
C913        C914   1.403   1_556  A
C913        C918   1.399       .  A
C913        H920   1.084       .  S
C914        C915   1.425       .  A
C915        C916   1.405       .  A
C915        N922   1.430       .  S
C916        C917   1.399       .  A
C916        H921   1.081       .  S
C917        C918   1.416   1_554  A
C918        N919   1.428       .  S
N919        H923   1.042       .  S
N919        H924   1.045       .  S
N922        H925   1.045       .  S
N922        H926   1.042       .  S
C927        C928   1.408       .  A
C927        C932   1.406       .  A
C927        H934   1.084       .  S
C928        C929   1.418       .  A
C929        C930   1.407       .  A
C929        N936   1.439       .  S
C930        C931   1.406       .  A
C930        H935   1.082       .  S
C931        C932   1.417       .  A
C932        N933   1.438       .  S
N933        H937   1.045   1_554  S
N933        H938   1.043   1_565  S
N936        H939   1.042       .  S
N936        H940   1.046       .  S
C941        C942   1.402       .  A
C941        C946   1.398       .  A
C941        H948   1.084       .  S
C942        C943   1.427       .  A
C943        C944   1.399       .  A
C943        N950   1.438       .  S
C944        C945   1.395       .  A
C944        H949   1.081       .  S
C945        C946   1.411       .  A
C946        N947   1.430       .  S
N947        H951   1.043       .  S
N947        H952   1.045       .  S
N950        H953   1.035       .  S
N950        H954   1.046       .  S
C955        C956   1.405       .  A
C955        C960   1.415       .  A
C955        H962   1.083       .  S
C956        C957   1.419       .  A
C957        C958   1.391       .  A
C957        N964   1.441       .  S
C958        C959   1.400       .  A
C958        H963   1.083       .  S
C959        C960   1.418       .  A
C960        N961   1.437       .  S
N961        H965   1.046       .  S
N961        H966   1.045       .  S
N964        H967   1.042       .  S
N964        H968   1.046       .  S
C969        C970   1.401       .  A
C969        C974   1.411       .  A
C969        H976   1.084       .  S
C970        C971   1.411   1_554  A
C971        C972   1.405       .  A
C971        N978   1.438       .  S
C972        C973   1.406   1_556  A
C972        H977   1.083       .  S
C973        C974   1.417       .  A
C974        N975   1.431       .  S
N975        H979   1.046       .  S
N975        H980   1.046       .  S
N978        H981   1.045       .  S
N978        H982   1.046       .  S
C983        C984   1.405       .  A
C983        C988   1.403       .  A
C983        H990   1.084       .  S
C984        C985   1.414   1_556  A
C985        C986   1.409       .  A
C985        N992   1.438       .  S
C986        C987   1.404   1_554  A
C986        H991   1.084       .  S
C987        C988   1.409       .  A
C988        N989   1.437       .  S
N989        H993   1.046       .  S
N989        H994   1.045       .  S
N992        H995   1.045       .  S
N992        H996   1.046       .  S
C997        C998   1.402   1_554  A
C997       C1002   1.404   1_565  A
C997       H1004   1.084       .  S
C998        C999   1.413       .  A
C999       C1000   1.410   1_565  A
C999       N1006   1.438       .  S
C1000      C1001   1.406       .  A
C1000      H1005   1.084       .  S
C1001      C1002   1.414   1_556  A
C1002      N1003   1.438       .  S
N1003      H1007   1.046       .  S
N1003      H1008   1.044       .  S
N1006      H1009   1.045       .  S
N1006      H1010   1.046       .  S
C1011      C1012   1.410       .  A
C1011      C1016   1.405       .  A
C1011      H1018   1.083       .  S
C1012      C1013   1.418       .  A
C1013      C1014   1.405       .  A
C1013      N1020   1.440       .  S
C1014      C1015   1.406       .  A
C1014      H1019   1.085       .  S
C1015      C1016   1.413       .  A
C1016      N1017   1.438       .  S
N1017      H1021   1.045       .  S
N1017      H1022   1.043       .  S
N1020      H1023   1.042       .  S
N1020      H1024   1.046       .  S
C1025      C1026   1.406       .  A
C1025      C1030   1.392       .  A
C1025      H1032   1.085       .  S
C1026      C1027   1.415       .  A
C1027      C1028   1.410       .  A
C1027      N1034   1.435       .  S
C1028      C1029   1.414       .  A
C1028      H1033   1.083       .  S
C1029      C1030   1.417       .  A
C1030      N1031   1.433       .  S
N1031      H1035   1.044       .  S
N1031      H1036   1.046       .  S
N1034      H1037   1.040       .  S
N1034      H1038   1.046       .  S
C1039      C1040   1.406       .  A
C1039      C1044   1.409       .  A
C1039      H1046   1.082       .  S
C1040      C1041   1.413       .  A
C1041      C1042   1.382       .  A
C1041      N1048   1.433       .  S
C1042      C1043   1.403       .  A
C1042      H1047   1.084       .  S
C1043      C1044   1.418       .  A
C1044      N1045   1.431       .  S
N1045      H1049   1.045       .  S
N1045      H1050   1.045       .  S
N1048      H1051   1.041       .  S
N1048      H1052   1.044       .  S
C1053      C1054   1.396       .  A
C1053      C1058   1.387       .  A
C1053      H1060   1.085       .  S
C1054      C1055   1.422       .  A
C1055      C1056   1.409       .  A
C1055      N1062   1.437       .  S
C1056      C1057   1.402       .  A
C1056      H1061   1.082       .  S
C1057      C1058   1.410       .  A
C1058      N1059   1.425       .  S
N1059      H1063   1.045       .  S
N1059      H1064   1.043       .  S
N1062      H1065   1.040       .  S
N1062      H1066   1.046       .  S
C1067      C1068   1.407       .  A
C1067      C1072   1.412       .  A
C1067      H1074   1.084       .  S
C1068      C1069   1.408       .  A
C1069      C1070   1.394       .  A
C1069      N1076   1.431       .  S
C1070      C1071   1.397       .  A
C1070      H1075   1.084       .  S
C1071      C1072   1.416       .  A
C1072      N1073   1.437       .  S
N1073      H1077   1.045       .  S
N1073      H1078   1.044       .  S
N1076      H1079   1.046       .  S
N1076      H1080   1.045       .  S
C1081      C1082   1.405       .  A
C1081      C1086   1.415       .  A
C1081      H1088   1.083       .  S
C1082      C1083   1.424       .  A
C1083      C1084   1.384       .  A
C1083      N1090   1.435       .  S
C1084      C1085   1.397       .  A
C1084      H1089   1.084       .  S
C1085      C1086   1.418       .  A
C1086      N1087   1.437       .  S
N1087      H1091   1.046       .  S
N1087      H1092   1.045       .  S
N1090      H1093   1.043       .  S
N1090      H1094   1.045       .  S
C1095      C1096   1.400       .  A
C1095      C1100   1.400       .  A
C1095      H1102   1.084       .  S
C1096      C1097   1.410       .  A
C1097      C1098   1.403   1_545  A
C1097      N1104   1.424   1_545  S
C1098      C1099   1.401   1_565  A
C1098      H1103   1.084       .  S
C1099      C1100   1.410       .  A
C1100      N1101   1.433       .  S
N1101      H1105   1.046       .  S
N1101      H1106   1.045       .  S
N1104      H1107   1.038       .  S
N1104      H1108   1.045       .  S
C1109      C1110   1.412       .  A
C1109      C1114   1.397       .  A
C1109      H1116   1.083       .  S
C1110      C1111   1.414       .  A
C1111      C1112   1.398       .  A
C1111      N1118   1.432       .  S
C1112      C1113   1.403       .  A
C1112      H1117   1.081       .  S
C1113      C1114   1.403       .  A
C1114      N1115   1.438       .  S
N1115      H1119   1.044       .  S
N1115      H1120   1.044       .  S
N1118      H1121   1.045       .  S
N1118      H1122   1.045       .  S
C1123      C1124   1.401       .  A
C1123      C1128   1.402       .  A
C1123      H1130   1.084       .  S
C1124      C1125   1.424       .  A
C1125      C1126   1.397       .  A
C1125      N1132   1.436       .  S
C1126      C1127   1.400       .  A
C1126      H1131   1.084       .  S
C1127      C1128   1.412       .  A
C1128      N1129   1.432       .  S
N1129      H1133   1.045       .  S
N1129      H1134   1.046       .  S
N1132      H1135   1.035       .  S
N1132      H1136   1.045       .  S
C1137      C1138   1.401       .  A
C1137      C1142   1.393       .  A
C1137      H1144   1.084       .  S
C1138      C1139   1.422       .  A
C1139      C1140   1.403       .  A
C1139      N1146   1.432       .  S
C1140      C1141   1.399       .  A
C1140      H1145   1.080       .  S
C1141      C1142   1.412       .  A
C1142      N1143   1.428       .  S
N1143      H1147   1.042       .  S
N1143      H1148   1.045       .  S
N1146      H1149   1.045       .  S
N1146      H1150   1.045       .  S
C1151      C1152   1.405       .  A
C1151      C1156   1.405       .  A
C1151      H1158   1.084       .  S
C1152      C1153   1.407       .  A
C1153      C1154   1.395       .  A
C1153      N1160   1.432       .  S
C1154      C1155   1.398       .  A
C1154      H1159   1.084       .  S
C1155      C1156   1.410       .  A
C1156      N1157   1.431       .  S
N1157      H1161   1.044       .  S
N1157      H1162   1.046       .  S
N1160      H1163   1.045       .  S
N1160      H1164   1.046       .  S
C1165      C1166   1.400       .  A
C1165      C1170   1.392       .  A
C1165      H1172   1.084       .  S
C1166      C1167   1.417       .  A
C1167      C1168   1.411       .  A
C1167      N1174   1.437       .  S
C1168      C1169   1.404       .  A
C1168      H1173   1.084       .  S
C1169      C1170   1.418       .  A
C1170      N1171   1.441       .  S
N1171      H1175   1.046       .  S
N1171      H1176   1.043       .  S
N1174      H1177   1.045       .  S
N1174      H1178   1.046       .  S
C1179      C1180   1.406       .  A
C1179      C1184   1.402       .  A
C1179      H1186   1.084       .  S
C1180      C1181   1.419       .  A
C1181      C1182   1.396       .  A
C1181      N1188   1.441       .  S
C1182      C1183   1.401       .  A
C1182      H1187   1.085       .  S
C1183      C1184   1.415       .  A
C1184      N1185   1.435       .  S
N1185      H1189   1.045       .  S
N1185      H1190   1.039       .  S
N1188      H1191   1.043       .  S
N1188      H1192   1.046   1_565  S
C1193      C1194   1.393       .  A
C1193      C1198   1.399   1_655  A
C1193      H1200   1.085       .  S
C1194      C1195   1.413       .  A
C1195      C1196   1.402   1_655  A
C1195      N1202   1.428       .  S
C1196      C1197   1.407       .  A
C1196      H1201   1.084       .  S
C1197      C1198   1.431       .  A
C1198      N1199   1.435       .  S
N1199      H1203   1.041       .  S
N1199      H1204   1.033       .  S
N1202      H1205   1.044       .  S
N1202      H1206   1.043       .  S
C1207      C1208   1.412   1_545  A
C1207      C1212   1.411       .  A
C1207      H1214   1.082       .  S
C1208      C1209   1.415       .  A
C1209      C1210   1.399       .  A
C1209      N1216   1.433       .  S
C1210      C1211   1.403   1_565  A
C1210      H1215   1.076       .  S
C1211      C1212   1.418       .  A
C1212      N1213   1.438       .  S
N1213      H1217   1.046       .  S
N1213      H1218   1.043       .  S
N1216      H1219   1.046       .  S
N1216      H1220   1.044       .  S
C1221      C1222   1.405       .  A
C1221      C1226   1.412       .  A
C1221      H1228   1.083       .  S
C1222      C1223   1.419       .  A
C1223      C1224   1.390       .  A
C1223      N1230   1.441       .  S
C1224      C1225   1.400       .  A
C1224      H1229   1.084       .  S
C1225      C1226   1.415       .  A
C1226      N1227   1.436       .  S
N1227      H1231   1.046       .  S
N1227      H1232   1.045       .  S
N1230      H1233   1.044       .  S
N1230      H1234   1.046   1_565  S
C1235      C1236   1.404       .  A
C1235      C1240   1.400       .  A
C1235      H1242   1.084       .  S
C1236      C1237   1.405       .  A
C1237      C1238   1.396       .  A
C1237      N1244   1.423       .  S
C1238      C1239   1.408       .  A
C1238      H1243   1.083       .  S
C1239      C1240   1.417       .  A
C1240      N1241   1.439       .  S
N1241      H1245   1.046       .  S
N1241      H1246   1.043       .  S
N1244      H1247   1.045       .  S
N1244      H1248   1.040       .  S
C1249      C1250   1.400       .  A
C1249      C1254   1.413       .  A
C1249      H1256   1.083       .  S
C1250      C1251   1.415       .  A
C1251      C1252   1.389       .  A
C1251      N1258   1.435       .  S
C1252      C1253   1.398       .  A
C1252      H1257   1.084       .  S
C1253      C1254   1.421       .  A
C1254      N1255   1.437       .  S
N1255      H1259   1.046       .  S
N1255      H1260   1.046       .  S
N1258      H1261   1.046       .  S
N1258      H1262   1.045       .  S
C1263      C1264   1.400       .  A
C1263      C1268   1.405       .  A
C1263      H1270   1.084       .  S
C1264      C1265   1.414       .  A
C1265      C1266   1.395       .  A
C1265      N1272   1.430       .  S
C1266      C1267   1.400       .  A
C1266      H1271   1.084       .  S
C1267      C1268   1.424       .  A
C1268      N1269   1.432       .  S
N1269      H1273   1.045       .  S
N1269      H1274   1.045       .  S
N1272      H1275   1.044       .  S
N1272      H1276   1.044   1_655  S
C1277      C1278   1.401       .  A
C1277      C1282   1.407   1_655  A
C1277      H1284   1.084       .  S
C1278      C1279   1.424       .  A
C1279      C1280   1.403   1_655  A
C1279      N1286   1.430       .  S
C1280      C1281   1.399       .  A
C1280      H1285   1.084       .  S
C1281      C1282   1.415       .  A
C1282      N1283   1.434       .  S
N1283      H1287   1.046       .  S
N1283      H1288   1.044       .  S
N1286      H1289   1.043       .  S
N1286      H1290   1.044       .  S
C1291      C1292   1.408       .  A
C1291      C1296   1.401       .  A
C1291      H1298   1.084       .  S
C1292      C1293   1.418       .  A
C1293      C1294   1.401       .  A
C1293      N1300   1.432       .  S
C1294      C1295   1.404       .  A
C1294      H1299   1.084       .  S
C1295      C1296   1.414       .  A
C1296      N1297   1.436       .  S
N1297      H1301   1.045       .  S
N1297      H1302   1.042       .  S
N1300      H1303   1.045       .  S
N1300      H1304   1.044       .  S
C1305      C1306   1.404       .  A
C1305      C1310   1.408       .  A
C1305      H1312   1.084       .  S
C1306      C1307   1.411       .  A
C1307      C1308   1.398       .  A
C1307      N1314   1.436       .  S
C1308      C1309   1.409       .  A
C1308      H1313   1.084       .  S
C1309      C1310   1.415       .  A
C1310      N1311   1.437       .  S
N1311      H1315   1.046       .  S
N1311      H1316   1.046       .  S
N1314      H1317   1.040       .  S
N1314      H1318   1.046       .  S
C1319      C1320   1.399       .  A
C1319      C1324   1.402       .  A
C1319      H1326   1.084       .  S
C1320      C1321   1.418       .  A
C1321      C1322   1.410       .  A
C1321      N1328   1.435       .  S
C1322      C1323   1.402       .  A
C1322      H1327   1.084       .  S
C1323      C1324   1.422       .  A
C1324      N1325   1.429       .  S
N1325      H1329   1.042       .  S
N1325      H1330   1.045       .  S
N1328      H1331   1.045       .  S
N1328      H1332   1.046       .  S
C1333      C1334   1.405       .  A
C1333      C1338   1.413       .  A
C1333      H1340   1.083       .  S
C1334      C1335   1.416       .  A
C1335      C1336   1.394       .  A
C1335      N1342   1.439       .  S
C1336      C1337   1.402       .  A
C1336      H1341   1.083       .  S
C1337      C1338   1.415       .  A
C1338      N1339   1.432       .  S
N1339      H1343   1.045       .  S
N1339      H1344   1.045       .  S
N1342      H1345   1.044       .  S
N1342      H1346   1.046       .  S
C1347      C1348   1.407       .  A
C1347      C1352   1.417       .  A
C1347      H1354   1.083       .  S
C1348      C1349   1.416       .  A
C1349      C1350   1.391       .  A
C1349      N1356   1.434       .  S
C1350      C1351   1.395       .  A
C1350      H1355   1.085       .  S
C1351      C1352   1.413       .  A
C1352      N1353   1.435       .  S
N1353      H1357   1.046       .  S
N1353      H1358   1.045   1_655  S
N1356      H1359   1.046       .  S
N1356      H1360   1.046       .  S
