geometry optimzed in LAMMPS
_audit_creation_date              2020-11-30 
_audit_creation_method            'lammps2cif' 
_symmetry_space_group_name_H-M    'P1' 
_symmetry_Int_Tables_number       1 
_symmetry_cell_setting            triclinic 
loop_ 
_symmetry_equiv_pos_as_xyz 
  x,y,z 
_cell_length_a                    37.49169804024218 
_cell_length_b                    48.14609953599273 
_cell_length_c                    27.53573228819491 
_cell_angle_alpha                 90.17065088906699 
_cell_angle_beta                  90.03110277402463 
_cell_angle_gamma                 90.08106240399499 
loop_ 
_atom_site_label 
_atom_site_type_symbol 
_atom_site_fract_x 
_atom_site_fract_y 
_atom_site_fract_z 
_atom_site_charge 
N1          N  0.70557464  0.07679572  0.29578362    -0.27430
N2          N  0.69418330  0.10079836  0.31303447    -0.35290
C3          C  0.66492734  0.09650181  0.34009815     0.00910
C4          C  0.65675794  0.06840854  0.33901648     0.06940
C5          C  0.68349476  0.05655306  0.31095075    -0.06160
H6          H  0.65134945  0.11278871  0.35964163     0.07600
H7          H  0.68643854  0.03481849  0.30171011     0.08800
Cu8        Cu  0.71714377  0.13860068  0.29607867     0.44170
Cu9        Cu  0.75049741  0.07335498  0.25222450     0.41990
Cu10       Cu  0.78888999  0.13836023  0.20813225     0.43880
N11         N  0.74036436  0.17428669  0.26887853    -0.34820
N12         N  0.76663081  0.17437566  0.23685147    -0.29070
C13         C  0.77528966  0.20086500  0.22665029    -0.05170
C14         C  0.75322112  0.21816279  0.25334017     0.07040
C15         C  0.73141662  0.20061700  0.27962670     0.00840
H16         H  0.79590394  0.20703051  0.20138782     0.08490
H17         H  0.71051688  0.20648947  0.30469626     0.07570
N18         N  0.80709901  0.09914508  0.18834956    -0.36270
N19         N  0.79410264  0.07576558  0.20603771    -0.28450
C20         C  0.81271889  0.05429168  0.18791541    -0.03690
C21         C  0.83835935  0.06437133  0.15602721     0.04930
C22         C  0.83393543  0.09304398  0.15776611     0.03020
H23         H  0.80791763  0.03312510  0.19857494     0.08120
H24         H  0.84902006  0.10848654  0.13801679     0.06960
O25         O  0.95610942  0.98470719  0.04991685    -0.73080
O26         O  0.02824406  0.94564177  0.96619297    -0.74070
O27         O  0.03192919  0.98434191  0.04350437    -0.62680
O28         O  0.95211159  0.94583133  0.97261478    -0.71090
O29         O  0.94919167  0.98080809  0.92027849    -0.70650
O30         O  0.02979847  0.01872269  0.99010715    -0.61900
O31         O  0.02480504  0.97984399  0.91243567    -0.74410
O32         O  0.95470486  0.01974790  0.99770400    -0.73190
Cu33       Cu  0.99215879  0.96388153  0.00987777     1.04560
Cu34       Cu  0.98955994  0.00095848  0.95323187     1.04330
C35         C  0.94439377  0.00852675  0.03724639     0.93110
C36         C  0.03788232  0.95667097  0.92613947     0.92250
C37         C  0.04350260  0.00761589  0.02785529     0.84400
C38         C  0.93788183  0.95741473  0.93571464     0.90670
N39         N  0.20382828  0.07662261  0.17386956    -0.27430
N40         N  0.19451383  0.10038011  0.15382436    -0.35290
C41         C  0.16647146  0.09615770  0.12442208     0.00910
C42         C  0.15659687  0.06835882  0.12664003     0.06940
C43         C  0.18136218  0.05667346  0.15831069    -0.06160
H44         H  0.15503928  0.11245652  0.10281768     0.07600
H45         H  0.18286465  0.03522321  0.16967390     0.08800
Cu46       Cu  0.21805298  0.13818176  0.16964531     0.44170
Cu47       Cu  0.24750438  0.07290072  0.22000571     0.41990
Cu48       Cu  0.29050230  0.13865724  0.25430574     0.43880
N49         N  0.24100259  0.17434079  0.19567839    -0.34820
N50         N  0.26775402  0.17465885  0.22693046    -0.29070
C51         C  0.27625888  0.20120725  0.23714957    -0.05170
C52         C  0.25360379  0.21833607  0.21116198     0.07040
C53         C  0.23158895  0.20059934  0.18532827     0.00840
H54         H  0.29719260  0.20752496  0.26190043     0.08490
H55         H  0.21020638  0.20629503  0.16092947     0.07570
N56         N  0.30851382  0.09970011  0.27513326    -0.36270
N57         N  0.29336456  0.07592123  0.26228835    -0.28450
C58         C  0.31206878  0.05481891  0.28162745    -0.03690
C59         C  0.34011408  0.06591690  0.30783859     0.04930
C60         C  0.33700329  0.09433849  0.30326777     0.03020
H61         H  0.30538262  0.03306556  0.27760906     0.08120
H62         H  0.35406191  0.10998698  0.31941110     0.06960
N63         N  0.77500120  0.89116749  0.79435863    -0.27430
N64         N  0.78890976  0.86724404  0.80831222    -0.35290
C65         C  0.81828341  0.87227316  0.83490805     0.00910
C66         C  0.82308487  0.90067699  0.83777025     0.06940
C67         C  0.79507825  0.91207614  0.81203887    -0.06160
H68         H  0.83498633  0.85639319  0.85076525     0.07600
H69         H  0.79020204  0.93389464  0.80553079     0.08800
Cu70       Cu  0.76834954  0.82863003  0.79002596     0.44170
Cu71       Cu  0.73056716  0.89427592  0.74980747     0.41990
Cu72       Cu  0.69060703  0.82862751  0.71391541     0.43880
N73         N  0.74323483  0.79267079  0.76647283    -0.34820
N74         N  0.71463177  0.79274583  0.73842093    -0.29070
C75         C  0.70481211  0.76640943  0.72908132    -0.05170
C76         C  0.72835062  0.74892959  0.75253254     0.07040
C77         C  0.75237617  0.76623670  0.77590963     0.00840
H78         H  0.68217557  0.76049529  0.70695099     0.08490
H79         H  0.77486559  0.76012783  0.79805313     0.07570
N80         N  0.67264065  0.86687513  0.69071091    -0.36270
N81         N  0.68710419  0.89086011  0.70352761    -0.28450
C82         C  0.66939122  0.91152513  0.68135133    -0.03690
C83         C  0.64286971  0.89989576  0.65282311     0.04930
C84         C  0.64543662  0.87158833  0.66009691     0.03020
H85         H  0.67557151  0.93337377  0.68531061     0.08120
H86         H  0.62848163  0.85554253  0.64505546     0.06960
O87         O  0.45314089  0.02055313  0.46767850    -0.73080
O88         O  0.52603173  0.98267027  0.55027216    -0.74070
O89         O  0.52863010  0.02096578  0.47241557    -0.62680
O90         O  0.45050438  0.98233467  0.54513040    -0.71090
O91         O  0.45193044  0.94799258  0.49161106    -0.70650
O92         O  0.53209837  0.98545955  0.42095276    -0.61900
O93         O  0.52743161  0.94741928  0.49864384    -0.74410
O94         O  0.45630649  0.98635648  0.41371558    -0.73190
Cu95       Cu  0.48953766  0.00284167  0.51066799     1.04920
Cu96       Cu  0.49200275  0.96557867  0.45436278     1.04330
C97         C  0.44300839  0.00943912  0.42785349     0.93110
C98         C  0.53820567  0.95894493  0.53790757     0.92250
C99         C  0.54295261  0.00917141  0.43569593     0.84400
C100        C  0.43861267  0.95905659  0.52977303     0.90670
N101        N  0.18925560  0.89126014  0.76218394    -0.27430
N102        N  0.17356592  0.86757740  0.77390706    -0.35290
C103        C  0.14588724  0.87294383  0.80345678     0.00910
C104        C  0.14436445  0.90126158  0.81087624     0.06940
C105        C  0.17208887  0.91232742  0.78422349    -0.06160
H106        H  0.12835607  0.85737140  0.81867628     0.07600
H107        H  0.17918056  0.93403000  0.78092405     0.08800
Cu108      Cu  0.19075088  0.82886517  0.75076218     0.44170
Cu109      Cu  0.23319802  0.89395734  0.71688083     0.41990
Cu110      Cu  0.26942311  0.82829952  0.67559856     0.43880
N111        N  0.21446748  0.79276240  0.72556018    -0.34820
N112        N  0.24338384  0.79258562  0.69811912    -0.29070
C113        C  0.25252989  0.76612900  0.68863361    -0.05170
C114        C  0.22822501  0.74884477  0.71129121     0.07040
C115        C  0.20444642  0.76641116  0.73435444     0.00840
H116        H  0.27540656  0.75998413  0.66724092     0.08490
H117        H  0.18175633  0.76053008  0.75631411     0.07570
N118        N  0.29038466  0.86663874  0.65678148    -0.36270
N119        N  0.27719214  0.89061979  0.67179594    -0.28450
C120        C  0.29709403  0.91139656  0.65365240    -0.03690
C121        C  0.32381113  0.89993481  0.62540234     0.04930
C122        C  0.31897541  0.87150939  0.62862012     0.03020
H123        H  0.29250325  0.93323460  0.66058265     0.08120
H124        H  0.33553754  0.85546240  0.61292304     0.06960
N125        N  0.68768068  0.57582102  0.70375318    -0.27430
N126        N  0.67242052  0.59952161  0.69119956    -0.35290
C127        C  0.64409797  0.59408823  0.66275712     0.00910
C128        C  0.64130426  0.56568888  0.65747759     0.06940
C129        C  0.66927637  0.55465950  0.68373412    -0.06160
H130        H  0.62701827  0.60968092  0.64676383     0.07600
H131        H  0.67606343  0.53293379  0.68742183     0.08800
Cu132      Cu  0.69037666  0.63845953  0.71214440     0.44170
Cu133      Cu  0.73328780  0.57319406  0.74651997     0.41990
Cu134      Cu  0.76357324  0.63891407  0.79553881     0.43880
N135        N  0.71347044  0.67463674  0.73827283    -0.34820
N136        N  0.74054758  0.67467699  0.76898638    -0.29070
C137        C  0.75010030  0.70103199  0.77858354    -0.05170
C138        C  0.72779728  0.71842642  0.75283034     0.07040
C139        C  0.70485979  0.70103768  0.72765197     0.00840
H140        H  0.77166965  0.70701613  0.80255818     0.08490
H141        H  0.68361508  0.70706626  0.70327417     0.07570
N142        N  0.78692856  0.60127131  0.81153155    -0.36270
N143        N  0.77721007  0.57739201  0.79212089    -0.28450
C144        C  0.79983036  0.55760259  0.80726908    -0.03690
C145        C  0.82525196  0.56942936  0.83824966     0.04930
C146        C  0.81544599  0.59731410  0.84006911     0.03020
H147        H  0.79784952  0.53619684  0.79570803     0.08120
H148        H  0.82731121  0.61408947  0.86015159     0.06960
N149        N  0.70387337  0.39053773  0.29275033    -0.27430
N150        N  0.69110562  0.36675433  0.30935317    -0.35290
C151        C  0.66266765  0.37201247  0.33766479     0.00910
C152        C  0.65746128  0.40038265  0.33881068     0.06940
C153        C  0.68387372  0.41154277  0.30995033    -0.06160
H154        H  0.64678185  0.35634558  0.35566095     0.07600
H155        H  0.68818373  0.43327195  0.30190257     0.08800
Cu156      Cu  0.71226196  0.32814363  0.29207463     0.44170
Cu157      Cu  0.74782624  0.39356684  0.24756622     0.41990
Cu158      Cu  0.79036024  0.32869190  0.21535862     0.43880
N159        N  0.73776025  0.29240017  0.26804673    -0.34820
N160        N  0.76615026  0.29267473  0.23959614    -0.29070
C161        C  0.77597367  0.26638588  0.22991522    -0.05170
C162        C  0.75271848  0.24871355  0.25355970     0.07040
C163        C  0.72883581  0.26588078  0.27741485     0.00840
H164        H  0.79845250  0.26062545  0.20743997     0.08490
H165        H  0.70650527  0.25960891  0.29972499     0.07570
N166        N  0.80945877  0.36723328  0.19480214    -0.36270
N167        N  0.79348212  0.39093818  0.20553774    -0.28450
C168        C  0.81176712  0.41195794  0.18522828    -0.03690
C169        C  0.84082316  0.40087954  0.16127527     0.04930
C170        C  0.83852774  0.37252617  0.16781528     0.03020
H171        H  0.80439290  0.43363816  0.18758609     0.08120
H172        H  0.85616135  0.35685608  0.15308973     0.06960
N173        N  0.18738272  0.57584392  0.75782973    -0.27430
N174        N  0.17387366  0.59918060  0.77481112    -0.35290
C175        C  0.14711155  0.59301422  0.80538125     0.00910
C176        C  0.14297811  0.56418839  0.80794242     0.06940
C177        C  0.16933774  0.55428861  0.77657127    -0.06160
H178        H  0.13212361  0.60871778  0.82459614     0.07600
H179        H  0.17569199  0.53326621  0.76683145     0.08800
Cu180      Cu  0.19213992  0.63834497  0.75489429     0.44170
Cu181      Cu  0.23095572  0.57380628  0.71167479     0.41990
Cu182      Cu  0.27007014  0.63907627  0.67662017     0.43880
N183        N  0.21538484  0.67441555  0.72802121    -0.34820
N184        N  0.24386403  0.67454021  0.69969687    -0.29070
C185        C  0.25254499  0.70093462  0.68913099    -0.05170
C186        C  0.22839196  0.71828848  0.71186220     0.07040
C187        C  0.20515660  0.70081174  0.73614950     0.00840
H188        H  0.27495891  0.70698855  0.66679005     0.08490
H189        H  0.18268573  0.70679985  0.75845580     0.07570
N190        N  0.29083003  0.60091500  0.65665672    -0.36270
N191        N  0.27647873  0.57693677  0.66938709    -0.28450
C192        C  0.29635393  0.55614900  0.65115574    -0.03690
C193        C  0.32425703  0.56762945  0.62514483     0.04930
C194        C  0.32013850  0.59606475  0.62987527     0.03020
H195        H  0.29087740  0.53428998  0.65637650     0.08120
H196        H  0.33758278  0.61210793  0.61610344     0.06960
O197        O  0.95137129  0.51900753  0.97514694    -0.73080
O198        O  0.03135376  0.48120353  0.04641691    -0.74070
O199        O  0.02657738  0.51992114  0.96936231    -0.62680
O200        O  0.95562213  0.48042191  0.05345503    -0.71090
O201        O  0.95180017  0.44625897  0.99929117    -0.70650
O202        O  0.02564233  0.48474472  0.91724622    -0.61900
O203        O  0.02769691  0.44583577  0.99461072    -0.74410
O204        O  0.95001101  0.48471140  0.92136841    -0.73190
Cu205      Cu  0.99123799  0.50132364  0.01301042     1.04560
Cu206      Cu  0.98871678  0.46414039  0.95632968     1.04330
C207        C  0.93838859  0.50806833  0.93656746     0.93110
C208        C  0.04207825  0.45750758  0.03143790     0.92250
C209        C  0.03732750  0.50866012  0.93001017     0.84400
C210        C  0.94228191  0.45732946  0.03947954     0.90670
O211        O  0.45056440  0.48456416  0.54520487    -0.73080
O212        O  0.53061312  0.44666171  0.47500622    -0.74070
O213        O  0.52595760  0.48581855  0.55157589    -0.62680
O214        O  0.45489458  0.44541203  0.46862893    -0.71090
O215        O  0.45553977  0.47998884  0.41574493    -0.70650
O216        O  0.52883195  0.51935872  0.49659615    -0.61900
O217        O  0.53085889  0.48018820  0.41977556    -0.74410
O218        O  0.45301730  0.51913099  0.49259016    -0.73190
Cu219      Cu  0.49046415  0.46440475  0.51195401     1.04560
Cu220      Cu  0.49211483  0.50088646  0.45434644     1.04330
C221        C  0.43913327  0.50798141  0.53022081     0.93110
C222        C  0.54309187  0.45732405  0.43612741     0.92250
C223        C  0.53900056  0.50879534  0.53677494     0.84400
C224        C  0.44355907  0.45642310  0.42941489     0.90670
N225        N  0.29499903  0.39113966  0.25887670    -0.27430
N226        N  0.30862535  0.36726864  0.27347960    -0.35290
C227        C  0.33635775  0.37236133  0.30313392     0.00910
C228        C  0.34065346  0.40077159  0.30678294     0.06940
C229        C  0.31393270  0.41210714  0.27851178    -0.06160
H230        H  0.35217991  0.35655470  0.32079400     0.07600
H231        H  0.30811762  0.43391654  0.27351932     0.08800
Cu232      Cu  0.28904829  0.32886922  0.25259975     0.44170
Cu233      Cu  0.25064331  0.39387701  0.21429442     0.41990
Cu234      Cu  0.21267721  0.32839022  0.17228770     0.43880
N235        N  0.26561284  0.29290096  0.22643356    -0.34820
N236        N  0.23773663  0.29257953  0.19700039    -0.29070
C237        C  0.22917989  0.26601934  0.18692788    -0.05170
C238        C  0.25281676  0.24890143  0.21125400     0.07040
C239        C  0.27552590  0.26664293  0.23590591     0.00840
H240        H  0.20731195  0.25968087  0.16374445     0.08490
H241        H  0.29764689  0.26095039  0.25905690     0.07570
N242        N  0.19279970  0.36725549  0.15364710    -0.36270
N243        N  0.20663593  0.39097998  0.16904360    -0.28450
C244        C  0.18720051  0.41215691  0.15152679    -0.03690
C245        C  0.15998646  0.40131372  0.12325885     0.04930
C246        C  0.16414475  0.37277264  0.12589737     0.03020
H247        H  0.19180568  0.43373440  0.16051592     0.08120
H248        H  0.14729352  0.35714476  0.10928787     0.06960
C249        C  0.41740539  0.44630065  0.34854246    -0.20450
C250        C  0.41672324  0.44187495  0.39899728    -0.07010
C251        C  0.39019623  0.42423362  0.41889110     0.13860
C252        C  0.36576272  0.41113500  0.38769250    -0.20500
C253        C  0.36667382  0.41558544  0.33748147    -0.07020
C254        C  0.39269737  0.43337867  0.31755591     0.13850
C255        C  0.39519855  0.43805012  0.26357326    -0.23850
H256        H  0.43770352  0.45968751  0.33312787     0.15130
H257        H  0.34550155  0.39751078  0.40258031     0.15160
C258        C  0.38652141  0.41974695  0.47284768    -0.23800
H259        H  0.41795079  0.45179915  0.25407568     0.05370
H260        H  0.37042496  0.44799858  0.25017309     0.08600
H261        H  0.39903437  0.41787375  0.24465599     0.08600
H262        H  0.38351500  0.44005698  0.49163454     0.08580
H263        H  0.41026275  0.40870515  0.48706569     0.08580
H264        H  0.36277785  0.40690524  0.48172477     0.05360
C265        C  0.10658997  0.45309474  0.04814627    -0.20450
C266        C  0.07180282  0.44355914  0.05627174    -0.07010
C267        C  0.06608954  0.42027727  0.08617766     0.13860
C268        C  0.09541789  0.40695001  0.10742730    -0.20500
C269        C  0.13034757  0.41649896  0.09972197    -0.07020
C270        C  0.13606505  0.43975485  0.06927271     0.13850
C271        C  0.17304356  0.44978889  0.05688958    -0.23850
H272        H  0.11069894  0.47076101  0.02443965     0.15130
H273        H  0.09102057  0.38917142  0.13075432     0.15160
C274        C  0.02899299  0.40999670  0.09667929    -0.23800
H275        H  0.17242743  0.46666246  0.02947115     0.05370
H276        H  0.18897556  0.43240119  0.04166564     0.08600
H277        H  0.18640072  0.45820104  0.08966324     0.08600
H278        H  0.01542413  0.40400503  0.06236657     0.08580
H279        H  0.01378012  0.42680247  0.11476070     0.08580
H280        H  0.02914797  0.39166783  0.12108174     0.05360
C281        C  0.08859751  0.56425400  0.86073139    -0.20450
C282        C  0.11590217  0.54866385  0.83819173    -0.07010
C283        C  0.11635731  0.51939221  0.84649278     0.13860
C284        C  0.09024638  0.50727586  0.87639181    -0.20500
C285        C  0.06384674  0.52312962  0.89915725    -0.07020
C286        C  0.06302518  0.55207253  0.89125829     0.13850
C287        C  0.03465025  0.57026906  0.91362582    -0.23850
H288        H  0.08672020  0.58633348  0.85458037     0.15130
H289        H  0.09066510  0.48504756  0.88263003     0.15160
C290        C  0.14374546  0.50012691  0.82502871    -0.23800
H291        H  0.03677151  0.59213321  0.90118612     0.05370
H292        H  0.03741144  0.57041864  0.95374753     0.08600
H293        H  0.00778251  0.56245826  0.90340145     0.08600
H294        H  0.17095911  0.50699138  0.83548356     0.08580
H295        H  0.14031755  0.49912493  0.78505791     0.08580
H296        H  0.14068666  0.47850376  0.83839451     0.05360
C297        C  0.39064033  0.54302733  0.53009111    -0.20450
C298        C  0.40935745  0.52240356  0.55566206    -0.07010
C299        C  0.39921336  0.51648865  0.60426173     0.13860
C300        C  0.37125566  0.53158903  0.62564018    -0.20500
C301        C  0.35328649  0.55250663  0.60021171    -0.07020
C302        C  0.36275294  0.55804564  0.55156636     0.13850
C303        C  0.34268780  0.57890077  0.52132669    -0.23850
H304        H  0.39764852  0.54736495  0.49268724     0.15130
H305        H  0.36361465  0.52730476  0.66285470     0.15160
C306        C  0.41786868  0.49485820  0.63452959    -0.23800
H307        H  0.35192524  0.57892576  0.48300085     0.05370
H308        H  0.34680190  0.60013490  0.53587153     0.08600
H309        H  0.31379242  0.57381551  0.52136878     0.08600
H310        H  0.44678386  0.49970060  0.63691417     0.08580
H311        H  0.41387763  0.47395925  0.61828447     0.08580
H312        H  0.40724966  0.49410716  0.67216256     0.05360
C313        C  0.59770191  0.42187526  0.33810656    -0.20450
C314        C  0.62879384  0.41544384  0.36392969    -0.07010
C315        C  0.63186567  0.42302963  0.41324824     0.13860
C316        C  0.60335771  0.43667731  0.43601614    -0.20500
C317        C  0.57220725  0.44316923  0.41023937    -0.07020
C318        C  0.56924437  0.43570545  0.36072087     0.13850
C319        C  0.53569176  0.44136433  0.33223531    -0.23850
H320        H  0.59560719  0.41580179  0.30025664     0.15130
H321        H  0.60547690  0.44255790  0.47396257     0.15160
C322        C  0.66526033  0.41684344  0.44161911    -0.23800
H323        H  0.53741934  0.43304778  0.29463728     0.05370
H324        H  0.53106579  0.46407195  0.32980920     0.08600
H325        H  0.51254026  0.43138675  0.35035438     0.08600
H326        H  0.68842813  0.42720842  0.42424467     0.08580
H327        H  0.66991222  0.39408388  0.44237533     0.08580
H328        H  0.66334937  0.42438132  0.47969865     0.05360
C329        C  0.85557623  0.42735258  0.08736527    -0.20450
C330        C  0.86696736  0.41584004  0.13134441    -0.07010
C331        C  0.90300344  0.41831654  0.14548318     0.13860
C332        C  0.92686841  0.43263249  0.11529939    -0.20500
C333        C  0.91582786  0.44326325  0.07043164    -0.07020
C334        C  0.87979966  0.44058436  0.05625285     0.13850
C335        C  0.86696744  0.45153624  0.00832464    -0.23850
H336        H  0.82783673  0.42528638  0.07677948     0.15130
H337        H  0.95432716  0.43518859  0.12643088     0.15160
C338        C  0.91615593  0.40614753  0.19252380    -0.23800
H339        H  0.83778268  0.44858117  0.00357464     0.05370
H340        H  0.88071270  0.44008548  0.97879958     0.08600
H341        H  0.87291086  0.47408474  0.00557835     0.08600
H342        H  0.91233021  0.38328424  0.19218553     0.08580
H343        H  0.90109099  0.41524465  0.22339866     0.08580
H344        H  0.94497524  0.41040037  0.19833685     0.05360
C345        C  0.85540553  0.52529439  0.86223672    -0.20450
C346        C  0.85548856  0.55459090  0.86320743    -0.07010
C347        C  0.88484003  0.56812736  0.88635664     0.13860
C348        C  0.91098419  0.55216964  0.90986825    -0.20500
C349        C  0.91025148  0.52310344  0.90923149    -0.07020
C350        C  0.88280408  0.50950965  0.88316636     0.13850
C351        C  0.88181258  0.47841003  0.87712707    -0.23850
H352        H  0.83385933  0.51423984  0.84471718     0.15130
H353        H  0.93272385  0.56258679  0.92851033     0.15160
C354        C  0.89021220  0.59912097  0.88646938    -0.23800
H355        H  0.85765784  0.47131317  0.85725611     0.05370
H356        H  0.88173580  0.46837614  0.91309348     0.08600
H357        H  0.90540003  0.47140264  0.85609338     0.08600
H358        H  0.87046727  0.60904212  0.91088770     0.08580
H359        H  0.88859482  0.60730574  0.84888250     0.08580
H360        H  0.91690367  0.60506653  0.90067796     0.05360
C361        C  0.62209225  0.54763726  0.57763086    -0.20450
C362        C  0.61527700  0.55060877  0.62736918    -0.07010
C363        C  0.58362450  0.53973109  0.64734620     0.13860
C364        C  0.55928995  0.52598775  0.61688911    -0.20500
C365        C  0.56575041  0.52331393  0.56687859    -0.07020
C366        C  0.59770209  0.53404615  0.54699629     0.13850
C367        C  0.60679844  0.53038955  0.49402784    -0.23850
H368        H  0.64663308  0.55598927  0.56279070     0.15130
H369        H  0.53481974  0.51767400  0.63201626     0.15160
C370        C  0.57541178  0.54293839  0.70060044    -0.23800
H371        H  0.63371089  0.53871101  0.48546216     0.05370
H372        H  0.58725227  0.54164115  0.47113872     0.08600
H373        H  0.60648796  0.50796454  0.48441869     0.08600
H374        H  0.57427030  0.56533400  0.71022035     0.08580
H375        H  0.59653768  0.53276274  0.72247235     0.08580
H376        H  0.54940107  0.53335158  0.71022578     0.05360
C377        C  0.37253403  0.93463175  0.62657436    -0.20450
C378        C  0.35276129  0.91497594  0.60025309    -0.07010
C379        C  0.36056409  0.91046965  0.55070168     0.13860
C380        C  0.38851334  0.92532779  0.52904848    -0.20500
C381        C  0.40893276  0.94472508  0.55542052    -0.07020
C382        C  0.40063495  0.94948604  0.60506875     0.13850
C383        C  0.42157664  0.96948624  0.63628606    -0.23850
H384        H  0.36624814  0.93805362  0.66456128     0.15130
H385        H  0.39424054  0.92185946  0.49092886     0.15160
C386        C  0.33870794  0.89088090  0.51987992    -0.23800
H387        H  0.41237821  0.96928783  0.67463017     0.05370
H388        H  0.41822668  0.99099188  0.62265758     0.08600
H389        H  0.45023596  0.96370607  0.63607383     0.08600
H390        H  0.31011161  0.89675167  0.52173781     0.08580
H391        H  0.34208232  0.86924214  0.53261423     0.08580
H392        H  0.34697778  0.89146157  0.48116196     0.05360
C393        C  0.58530823  0.92316157  0.54700636    -0.20450
C394        C  0.56523736  0.94460013  0.56846413    -0.07010
C395        C  0.57144861  0.95137907  0.61802750     0.13860
C396        C  0.59713290  0.93644187  0.64427855    -0.20500
C397        C  0.61649152  0.91479419  0.62283683    -0.07020
C398        C  0.61080768  0.90822161  0.57342917     0.13850
C399        C  0.63245428  0.88628413  0.54771204    -0.23850
H400        H  0.58126344  0.91810272  0.50901417     0.15130
H401        H  0.60184252  0.94142186  0.68218380     0.15160
C402        C  0.55090966  0.97377372  0.64425087    -0.23800
H403        H  0.62626255  0.88540451  0.50827981     0.05370
H404        H  0.62655829  0.86551567  0.56295042     0.08600
H405        H  0.66133112  0.89090587  0.55170005     0.08600
H406        H  0.52188437  0.96929096  0.64237916     0.08580
H407        H  0.55667923  0.99431551  0.62783069     0.08580
H408        H  0.55837072  0.97511624  0.68324079     0.05360
C409        C  0.36090868  0.04970954  0.38793407    -0.20450
C410        C  0.36622853  0.05083351  0.33767365    -0.07010
C411        C  0.39636059  0.03797358  0.31690403     0.13860
C412        C  0.42079042  0.02428040  0.34715551    -0.20500
C413        C  0.41590114  0.02350984  0.39770379    -0.07020
C414        C  0.38529263  0.03610219  0.41832709     0.13850
C415        C  0.37747116  0.03448193  0.47197818    -0.23850
H416        H  0.33747078  0.05949495  0.40339199     0.15130
H417        H  0.44418818  0.01460464  0.33138967     0.15160
C418        C  0.40301638  0.03918759  0.26302133    -0.23800
H419        H  0.35120724  0.04380111  0.48102848     0.05370
H420        H  0.39805994  0.04598664  0.49287122     0.08600
H421        H  0.37697801  0.01242335  0.48367754     0.08600
H422        H  0.40527979  0.06118156  0.25137088     0.08580
H423        H  0.38057803  0.02916690  0.24329957     0.08580
H424        H  0.42803769  0.02832120  0.25278881     0.05360
C425        C  0.91558767  0.92617646  0.87118309    -0.20450
C426        C  0.90807600  0.94358471  0.91061154    -0.07010
C427        C  0.87242493  0.94740866  0.92552063     0.13860
C428        C  0.84495580  0.93358044  0.90047049    -0.20500
C429        C  0.85263684  0.91559296  0.86169881    -0.07020
C430        C  0.88832709  0.91200512  0.84656345     0.13850
C431        C  0.89770274  0.89385997  0.80373875    -0.23850
H432        H  0.94288539  0.92348123  0.85981968     0.15130
H433        H  0.81749535  0.93629919  0.91181999     0.15160
C434        C  0.86356348  0.96568551  0.96825409    -0.23800
H435        H  0.92671127  0.89450451  0.79561307     0.05370
H436        H  0.88312342  0.90105931  0.77100773     0.08600
H437        H  0.89047400  0.87196507  0.81135460     0.08600
H438        H  0.87324739  0.98714685  0.96160910     0.08580
H439        H  0.87666931  0.95730805  0.00122757     0.08580
H440        H  0.83438634  0.96655520  0.97504985     0.05360
C441        C  0.06869165  0.05103251  0.06120111    -0.20450
C442        C  0.07235721  0.02240797  0.05395590    -0.07010
C443        C  0.10340425  0.00894802  0.07075900     0.13860
C444        C  0.13037521  0.02469054  0.09321618    -0.20500
C445        C  0.12696450  0.05354021  0.10072503    -0.07020
C446        C  0.09505108  0.06675309  0.08493488     0.13850
C447        C  0.08727156  0.09705457  0.09363205    -0.23850
H448        H  0.04461606  0.06117688  0.04857028     0.15130
H449        H  0.15446636  0.01421675  0.10466166     0.15160
C450        C  0.10880757  0.97817588  0.06386788    -0.23800
H451        H  0.05889985  0.10212363  0.08612736     0.05370
H452        H  0.10332401  0.10996744  0.06857515     0.08600
H453        H  0.09245895  0.10262120  0.13214549     0.08600
H454        H  0.10690208  0.97288067  0.02473088     0.08580
H455        H  0.08827830  0.96647464  0.08441734     0.08580
H456        H  0.13535221  0.97133143  0.07713161     0.05360
C457        C  0.09894026  0.93818878  0.91540821    -0.20450
C458        C  0.06491363  0.94274841  0.89583040    -0.07010
C459        C  0.05738126  0.93400017  0.84790093     0.13860
C460        C  0.08400818  0.92071022  0.82071906    -0.20500
C461        C  0.11799284  0.91633674  0.84024370    -0.07020
C462        C  0.12576662  0.92530806  0.88788586     0.13850
C463        C  0.16216045  0.92097669  0.90973458    -0.23850
H464        H  0.10459779  0.94491976  0.95217758     0.15130
H465        H  0.07824727  0.91346728  0.78421356     0.15160
C466        C  0.02082719  0.93737823  0.82631879    -0.23800
H467        H  0.16367016  0.92909250  0.94749023     0.05370
H468        H  0.18252033  0.93195350  0.88766245     0.08600
H469        H  0.16847077  0.89845808  0.91047582     0.08600
H470        H  0.01354406  0.95968388  0.82476718     0.08580
H471        H  0.00148850  0.92605929  0.84925410     0.08580
H472        H  0.01923549  0.92874891  0.78891879     0.05360
C473        C  0.63325833  0.02695550  0.38207376    -0.20450
C474        C  0.62682654  0.05365513  0.36334643    -0.07010
C475        C  0.59193867  0.06493948  0.36689453     0.13860
C476        C  0.56522393  0.04977805  0.39073303    -0.20500
C477        C  0.57198552  0.02343814  0.40986670    -0.07020
C478        C  0.60622510  0.01166314  0.40509662     0.13850
C479        C  0.61455448  0.98338741  0.42553644    -0.23850
H480        H  0.65973696  0.01810468  0.37926171     0.15130
H481        H  0.53864322  0.05842857  0.39412684     0.15160
C482        C  0.58176960  0.09223602  0.34410234    -0.23800
H483        H  0.64295496  0.97768699  0.41992754     0.05370
H484        H  0.59783993  0.96739542  0.40737477     0.08600
H485        H  0.60909196  0.98317000  0.46517650     0.08600
H486        H  0.59083381  0.09288769  0.30574108     0.08580
H487        H  0.59333188  0.10971417  0.36503935     0.08580
H488        H  0.55241051  0.09532580  0.34410238     0.05360
C489        C  0.89722798  0.06283018  0.11412779    -0.20450
C490        C  0.86552747  0.04884063  0.12684713    -0.07010
C491        C  0.86040011  0.02124804  0.10947373     0.13860
C492        C  0.88713557  0.00862210  0.08140113    -0.20500
C493        C  0.91811167  0.02290799  0.06820829    -0.07020
C494        C  0.92327572  0.05038490  0.08461545     0.13850
C495        C  0.95667550  0.06635322  0.07227807    -0.23850
H496        H  0.90186984  0.08371884  0.12737716     0.15130
H497        H  0.88354529  0.98747304  0.06883798     0.15160
C498        C  0.82669020  0.00492293  0.11807113    -0.23800
H499        H  0.95704622  0.08717669  0.08974159     0.05370
H500        H  0.95844828  0.06944336  0.03243419     0.08600
H501        H  0.98045358  0.05472742  0.08499184     0.08600
H502        H  0.80296870  0.01765076  0.10891765     0.08580
H503        H  0.82571527  0.99775540  0.15622346     0.08580
H504        H  0.82554264  0.98595360  0.09503245     0.05360
loop_ 
_geom_bond_atom_site_label_1 
_geom_bond_atom_site_label_2 
_geom_bond_distance 
_geom_bond_site_symmetry_2 
_ccdc_geom_bond_type 
N1            N2   1.320       .  A
N1            C5   1.345       .  A
N1           Cu9   2.075       .  S
N2            C3   1.343       .  A
N2           Cu8   2.067       .  S
C3            C4   1.387       .  A
C3            H6   1.078       .  S
C4            C5   1.388       .  A
C4          C474   1.488       .  S
C5            H7   1.082       .  S
Cu8          N11   2.068       .  S
Cu9          N19   2.075       .  S
Cu10         N12   2.080       .  S
Cu10         N18   2.080       .  S
N11          N12   1.322       .  A
N11          C15   1.344       .  A
N12          C13   1.346       .  A
C13          C14   1.385       .  A
C13          H16   1.082       .  S
C14          C15   1.381       .  A
C14         C162   1.471       .  S
C15          H17   1.082       .  S
N18          N19   1.320       .  A
N18          C22   1.345       .  A
N19          C20   1.343       .  A
C20          C21   1.390       .  A
C20          H23   1.076       .  S
C21          C22   1.391       .  A
C21         C490   1.497       .  S
C22          H24   1.082       .  S
O25         Cu33   2.012       .  S
O25          C35   1.278   1_565  A
O26         Cu33   2.012   1_456  S
O26          C36   1.278       .  A
O27         Cu33   2.010   1_455  S
O27          C37   1.277   1_565  A
O28         Cu33   2.013   1_556  S
O28          C38   1.277       .  A
O29         Cu34   2.011   1_565  S
O29          C38   1.277       .  A
O30         Cu34   2.007   1_455  S
O30          C37   1.278   1_556  A
O31         Cu34   2.010   1_465  S
O31          C36   1.277       .  A
O32         Cu34   2.006       .  S
O32          C35   1.277   1_556  A
Cu33        Cu34   2.376   1_564  S
C35         C493   1.475       .  S
C36         C458   1.474       .  S
C37         C442   1.479       .  S
C38         C426   1.471       .  S
N39          N40   1.319       .  A
N39          C43   1.346       .  A
N39         Cu47   2.080       .  S
N40          C41   1.342       .  A
N40         Cu46   2.067       .  S
C41          C42   1.390       .  A
C41          H44   1.076       .  S
C42          C43   1.394       .  A
C42         C445   1.499       .  S
C43          H45   1.082       .  S
Cu46         N49   2.067       .  S
Cu47         N57   2.081       .  S
Cu48         N50   2.076       .  S
Cu48         N56   2.077       .  S
N49          N50   1.321       .  A
N49          C53   1.344       .  A
N50          C51   1.346       .  A
C51          C52   1.385       .  A
C51          H54   1.082       .  S
C52          C53   1.382       .  A
C52         C238   1.472       .  S
C53          H55   1.082       .  S
N56          N57   1.324       .  A
N56          C60   1.345       .  A
N57          C58   1.346       .  A
C58          C59   1.381       .  A
C58          H61   1.082       .  S
C59          C60   1.380       .  A
C59         C410   1.472       .  S
C60          H62   1.082       .  S
N63          N64   1.323       .  A
N63          C67   1.346       .  A
N63         Cu71   2.074       .  S
N64          C65   1.344       .  A
N64         Cu70   2.072       .  S
C65          C66   1.381       .  A
C65          H68   1.082       .  S
C66          C67   1.382       .  A
C66         C429   1.474       .  S
C67          H69   1.082       .  S
Cu70         N73   2.072       .  S
Cu71         N81   2.074       .  S
Cu72         N74   2.064       .  S
Cu72         N80   2.065       .  S
N73          N74   1.321       .  A
N73          C77   1.345       .  A
N74          C75   1.344       .  A
C75          C76   1.382       .  A
C75          H78   1.082       .  S
C76          C77   1.384       .  A
C76         C138   1.469       .  S
C77          H79   1.082       .  S
N80          N81   1.322       .  A
N80          C84   1.343       .  A
N81          C82   1.345       .  A
C82          C83   1.384       .  A
C82          H85   1.082       .  S
C83          C84   1.382       .  A
C83         C397   1.476       .  S
C84          H86   1.081       .  S
O87         Cu95   2.000       .  S
O87          C97   1.276       .  A
O88         Cu95   2.003   1_565  S
O88          C98   1.276       .  A
O89         Cu95   2.006       .  S
O89          C99   1.277       .  A
O90         Cu95   2.005   1_565  S
O90         C100   1.276       .  A
O91         Cu96   2.007       .  S
O91         C100   1.279       .  A
O92         Cu96   2.006       .  S
O92          C99   1.277   1_565  A
O93         Cu96   2.006       .  S
O93          C98   1.279       .  A
O94         Cu96   2.013       .  S
O94          C97   1.278   1_565  A
Cu95        Cu96   2.370   1_545  S
C97         C413   1.478       .  S
C98         C394   1.489       .  S
C99         C477   1.471       .  S
C100        C381   1.488       .  S
N101        N102   1.323       .  A
N101        C105   1.345       .  A
N101       Cu109   2.071       .  S
N102        C103   1.344       .  A
N102       Cu108   2.072       .  S
C103        C104   1.379       .  A
C103        H106   1.082       .  S
C104        C105   1.380       .  A
C104        C461   1.469       .  S
C105        H107   1.082       .  S
Cu108       N111   2.072       .  S
Cu109       N119   2.071       .  S
Cu110       N112   2.073       .  S
Cu110       N118   2.073       .  S
N111        N112   1.322       .  A
N111        C115   1.345       .  A
N112        C113   1.344       .  A
C113        C114   1.383       .  A
C113        H116   1.082       .  S
C114        C115   1.383       .  A
C114        C186   1.471       .  S
C115        H117   1.082       .  S
N118        N119   1.322       .  A
N118        C122   1.344       .  A
N119        C120   1.345       .  A
C120        C121   1.383       .  A
C120        H123   1.082       .  S
C121        C122   1.383       .  A
C121        C378   1.478       .  S
C122        H124   1.081       .  S
N125        N126   1.324       .  A
N125        C129   1.346       .  A
N125       Cu133   2.080       .  S
N126        C127   1.344       .  A
N126       Cu132   2.071       .  S
C127        C128   1.378       .  A
C127        H130   1.082       .  S
C128        C129   1.381       .  A
C128        C362   1.470       .  S
C129        H131   1.082       .  S
Cu132       N135   2.071       .  S
Cu133       N143   2.080       .  S
Cu134       N136   2.063       .  S
Cu134       N142   2.063       .  S
N135        N136   1.321       .  A
N135        C139   1.345       .  A
N136        C137   1.343       .  A
C137        C138   1.381       .  A
C137        H140   1.082       .  S
C138        C139   1.384       .  A
C139        H141   1.082       .  S
N142        N143   1.317       .  A
N142        C146   1.341       .  A
N143        C144   1.344       .  A
C144        C145   1.398       .  A
C144        H147   1.080       .  S
C145        C146   1.393       .  A
C145        C346   1.507       .  S
C146        H148   1.073       .  S
N149        N150   1.323       .  A
N149        C153   1.345       .  A
N149       Cu157   2.071       .  S
N150        C151   1.345       .  A
N150       Cu156   2.076       .  S
C151        C152   1.380       .  A
C151        H154   1.082       .  S
C152        C153   1.379       .  A
C152        C314   1.470       .  S
C153        H155   1.082       .  S
Cu156       N159   2.076       .  S
Cu157       N167   2.071       .  S
Cu158       N160   2.069       .  S
Cu158       N166   2.069       .  S
N159        N160   1.322       .  A
N159        C163   1.345       .  A
N160        C161   1.345       .  A
C161        C162   1.382       .  A
C161        H164   1.082       .  S
C162        C163   1.384       .  A
C163        H165   1.082       .  S
N166        N167   1.322       .  A
N166        C170   1.344       .  A
N167        C168   1.345       .  A
C168        C169   1.381       .  A
C168        H171   1.082       .  S
C169        C170   1.380       .  A
C169        C330   1.470       .  S
C170        H172   1.082       .  S
N173        N174   1.318       .  A
N173        C177   1.343       .  A
N173       Cu181   2.073       .  S
N174        C175   1.344       .  A
N174       Cu180   2.080       .  S
C175        C176   1.398       .  A
C175        H178   1.080       .  S
C176        C177   1.396       .  A
C176        C282   1.512       .  S
C177        H179   1.073       .  S
Cu180       N183   2.080       .  S
Cu181       N191   2.072       .  S
Cu182       N184   2.070       .  S
Cu182       N190   2.069       .  S
N183        N184   1.323       .  A
N183        C187   1.346       .  A
N184        C185   1.344       .  A
C185        C186   1.382       .  A
C185        H188   1.082       .  S
C186        C187   1.384       .  A
C187        H189   1.082       .  S
N190        N191   1.321       .  A
N190        C194   1.344       .  A
N191        C192   1.345       .  A
C192        C193   1.384       .  A
C192        H195   1.082       .  S
C193        C194   1.384       .  A
C193        C301   1.479       .  S
C194        H196   1.081       .  S
O197       Cu205   2.013   1_556  S
O197        C207   1.280       .  A
O198       Cu205   2.014   1_455  S
O198        C208   1.278       .  A
O199       Cu205   2.002   1_456  S
O199        C209   1.276       .  A
O200       Cu205   2.010       .  S
O200        C210   1.277       .  A
O201       Cu206   2.015       .  S
O201        C210   1.278   1_556  A
O202       Cu206   2.016   1_455  S
O202        C209   1.280       .  A
O203       Cu206   2.008   1_455  S
O203        C208   1.277   1_556  A
O204       Cu206   2.005       .  S
O204        C207   1.276       .  A
Cu205      Cu206   2.373   1_554  S
C207        C349   1.486       .  S
C208        C266   1.471       .  S
C209        C285   1.483       .  S
C210        C333   1.473       .  S
O211       Cu219   2.005       .  S
O211        C221   1.276       .  A
O212       Cu219   2.008       .  S
O212        C222   1.277       .  A
O213       Cu219   2.003       .  S
O213        C223   1.277       .  A
O214       Cu219   2.007       .  S
O214        C224   1.277       .  A
O215       Cu220   2.003       .  S
O215        C224   1.278       .  A
O216       Cu220   2.007       .  S
O216        C223   1.277       .  A
O217       Cu220   2.002       .  S
O217        C222   1.276       .  A
O218       Cu220   2.007       .  S
O218        C221   1.279       .  A
Cu219      Cu220   2.371       .  S
C221        C298   1.490       .  S
C222        C317   1.471       .  S
C223        C365   1.475       .  S
C224        C250   1.483       .  S
N225        N226   1.322       .  A
N225        C229   1.345       .  A
N225       Cu233   2.071       .  S
N226        C227   1.344       .  A
N226       Cu232   2.068       .  S
C227        C228   1.380       .  A
C227        H230   1.082       .  S
C228        C229   1.382       .  A
C228        C253   1.473       .  S
C229        H231   1.082       .  S
Cu232       N235   2.068       .  S
Cu233       N243   2.071       .  S
Cu234       N236   2.081       .  S
Cu234       N242   2.081       .  S
N235        N236   1.322       .  A
N235        C239   1.344       .  A
N236        C237   1.346       .  A
C237        C238   1.385       .  A
C237        H240   1.082       .  S
C238        C239   1.382       .  A
C239        H241   1.082       .  S
N242        N243   1.322       .  A
N242        C246   1.345       .  A
N243        C244   1.345       .  A
C244        C245   1.384       .  A
C244        H247   1.081       .  S
C245        C246   1.385       .  A
C245        C269   1.481       .  S
C246        H248   1.082       .  S
C249        C250   1.406       .  A
C249        C254   1.403       .  A
C249        H256   1.084       .  S
C250        C251   1.418       .  A
C251        C252   1.403       .  A
C251        C258   1.508       .  S
C252        C253   1.400       .  A
C252        H257   1.084       .  S
C253        C254   1.410       .  A
C254        C255   1.507       .  S
C255        H259   1.111       .  S
C255        H260   1.109       .  S
C255        H261   1.110       .  S
C258        H262   1.111       .  S
C258        H263   1.109       .  S
C258        H264   1.111       .  S
C265        C266   1.400       .  A
C265        C270   1.406       .  A
C265        H272   1.085       .  S
C266        C267   1.409       .  A
C267        C268   1.402       .  A
C267        C274   1.504       .  S
C268        C269   1.404       .  A
C268        H273   1.084       .  S
C269        C270   1.417       .  A
C270        C271   1.507       .  S
C271        H275   1.111       .  S
C271        H276   1.110       .  S
C271        H277   1.107       .  S
C274        H278   1.110       .  S
C274        H279   1.108       .  S
C274        H280   1.111       .  S
C281        C282   1.413       .  A
C281        C286   1.404       .  A
C281        H288   1.079       .  S
C282        C283   1.429       .  A
C283        C284   1.407       .  A
C283        C290   1.505       .  S
C284        C285   1.398       .  A
C284        H289   1.085       .  S
C285        C286   1.411       .  A
C286        C287   1.510       .  S
C287        H291   1.111       .  S
C287        H292   1.110       .  S
C287        H293   1.111       .  S
C290        H294   1.110       .  S
C290        H295   1.109       .  S
C290        H296   1.111       .  S
C297        C298   1.407       .  A
C297        C302   1.402       .  A
C297        H304   1.084       .  S
C298        C299   1.421       .  A
C299        C300   1.405       .  A
C299        C306   1.508       .  S
C300        C301   1.401       .  A
C300        H305   1.084       .  S
C301        C302   1.412       .  A
C302        C303   1.508       .  S
C303        H307   1.111       .  S
C303        H308   1.107       .  S
C303        H309   1.110       .  S
C306        H310   1.110       .  S
C306        H311   1.110       .  S
C306        H312   1.111       .  S
C313        C314   1.401       .  A
C313        C318   1.403       .  A
C313        H320   1.084       .  S
C314        C315   1.410       .  A
C315        C316   1.403       .  A
C315        C322   1.506       .  S
C316        C317   1.402       .  A
C316        H321   1.085       .  S
C317        C318   1.413       .  A
C318        C319   1.508       .  S
C319        H323   1.111       .  S
C319        H324   1.109       .  S
C319        H325   1.111       .  S
C322        H326   1.110       .  S
C322        H327   1.110       .  S
C322        H328   1.111       .  S
C329        C330   1.400       .  A
C329        C334   1.403       .  A
C329        H336   1.084       .  S
C330        C331   1.411       .  A
C331        C332   1.403       .  A
C331        C338   1.506       .  S
C332        C333   1.401       .  A
C332        H337   1.081       .  S
C333        C334   1.411       .  A
C334        C335   1.502       .  S
C335        H339   1.111       .  S
C335        H340   1.109   1_554  S
C335        H341   1.111       .  S
C338        H342   1.110       .  S
C338        H343   1.110       .  S
C338        H344   1.111       .  S
C345        C346   1.411       .  A
C345        C350   1.403       .  A
C345        H352   1.080       .  S
C346        C347   1.427       .  A
C347        C348   1.405       .  A
C347        C354   1.505       .  S
C348        C349   1.400       .  A
C348        H353   1.085       .  S
C349        C350   1.413       .  A
C350        C351   1.506       .  S
C351        H355   1.111       .  S
C351        H356   1.103       .  S
C351        H357   1.110       .  S
C354        H358   1.108       .  S
C354        H359   1.110       .  S
C354        H360   1.111       .  S
C361        C362   1.400       .  A
C361        C366   1.404       .  A
C361        H368   1.084       .  S
C362        C363   1.409       .  A
C363        C364   1.403       .  A
C363        C370   1.506       .  S
C364        C365   1.404       .  A
C364        H369   1.084       .  S
C365        C366   1.415       .  A
C366        C367   1.508       .  S
C367        H371   1.111       .  S
C367        H372   1.109       .  S
C367        H373   1.111       .  S
C370        H374   1.110       .  S
C370        H375   1.110       .  S
C370        H376   1.111       .  S
C377        C378   1.401       .  A
C377        C382   1.405       .  A
C377        H384   1.085       .  S
C378        C379   1.412       .  A
C379        C380   1.402       .  A
C379        C386   1.508       .  S
C380        C381   1.407       .  A
C380        H385   1.084       .  S
C381        C382   1.420       .  A
C382        C383   1.508       .  S
C383        H387   1.111       .  S
C383        H388   1.110       .  S
C383        H389   1.110       .  S
C386        H390   1.110       .  S
C386        H391   1.108       .  S
C386        H392   1.111       .  S
C393        C394   1.407       .  A
C393        C398   1.402       .  A
C393        H400   1.084       .  S
C394        C395   1.421       .  A
C395        C396   1.404       .  A
C395        C402   1.508       .  S
C396        C397   1.400       .  A
C396        H401   1.085       .  S
C397        C398   1.412       .  A
C398        C399   1.508       .  S
C399        H403   1.111       .  S
C399        H404   1.108       .  S
C399        H405   1.110       .  S
C402        H406   1.110       .  S
C402        H407   1.110       .  S
C402        H408   1.111       .  S
C409        C410   1.400       .  A
C409        C414   1.403       .  A
C409        H416   1.084       .  S
C410        C411   1.410       .  A
C411        C412   1.404       .  A
C411        C418   1.506       .  S
C412        C413   1.405       .  A
C412        H417   1.084       .  S
C413        C414   1.417       .  A
C414        C415   1.509       .  S
C415        H419   1.111       .  S
C415        H420   1.109       .  S
C415        H421   1.111       .  S
C418        H422   1.111       .  S
C418        H423   1.110       .  S
C418        H424   1.111       .  S
C425        C426   1.399       .  A
C425        C430   1.401       .  A
C425        H432   1.078       .  S
C426        C427   1.411       .  A
C427        C428   1.405       .  A
C427        C434   1.505       .  S
C428        C429   1.403       .  A
C428        H433   1.084       .  S
C429        C430   1.412       .  A
C430        C431   1.507       .  S
C431        H435   1.111       .  S
C431        H436   1.110       .  S
C431        H437   1.109       .  S
C434        H438   1.110       .  S
C434        H439   1.109   1_556  S
C434        H440   1.111       .  S
C441        C442   1.399       .  A
C441        C446   1.404       .  A
C441        H448   1.085       .  S
C442        C443   1.411       .  A
C443        C444   1.405       .  A
C443        C450   1.507   1_545  S
C444        C445   1.410       .  A
C444        H449   1.082       .  S
C445        C446   1.424       .  A
C446        C447   1.507       .  S
C447        H451   1.111       .  S
C447        H452   1.108       .  S
C447        H453   1.110       .  S
C450        H454   1.109       .  S
C450        H455   1.110       .  S
C450        H456   1.111       .  S
C457        C458   1.403       .  A
C457        C462   1.404       .  A
C457        H464   1.083       .  S
C458        C459   1.412       .  A
C459        C460   1.402       .  A
C459        C466   1.503       .  S
C460        C461   1.399       .  A
C460        H465   1.085       .  S
C461        C462   1.410       .  A
C462        C463   1.506       .  S
C463        H467   1.111       .  S
C463        H468   1.110       .  S
C463        H469   1.110       .  S
C466        H470   1.109       .  S
C466        H471   1.106       .  S
C466        H472   1.111       .  S
C473        C474   1.408       .  A
C473        C478   1.404       .  A
C473        H480   1.084       .  S
C474        C475   1.420       .  A
C475        C476   1.403       .  A
C475        C482   1.507       .  S
C476        C477   1.398       .  A
C476        H481   1.085       .  S
C477        C478   1.410       .  A
C478        C479   1.508   1_545  S
C479        H483   1.111       .  S
C479        H484   1.110       .  S
C479        H485   1.111       .  S
C482        H486   1.110       .  S
C482        H487   1.106       .  S
C482        H488   1.111       .  S
C489        C490   1.410       .  A
C489        C494   1.405       .  A
C489        H496   1.083       .  S
C490        C491   1.423       .  A
C491        C492   1.404       .  A
C491        C498   1.507       .  S
C492        C493   1.398       .  A
C492        H497   1.083   1_545  S
C493        C494   1.410       .  A
C494        C495   1.508       .  S
C495        H499   1.111       .  S
C495        H500   1.110       .  S
C495        H501   1.110       .  S
C498        H502   1.110       .  S
C498        H503   1.107   1_545  S
C498        H504   1.111   1_545  S
