geometry optimzed in LAMMPS
_audit_creation_date              2020-11-30 
_audit_creation_method            'lammps2cif' 
_symmetry_space_group_name_H-M    'P1' 
_symmetry_Int_Tables_number       1 
_symmetry_cell_setting            triclinic 
loop_ 
_symmetry_equiv_pos_as_xyz 
  x,y,z 
_cell_length_a                    47.99557828255556 
_cell_length_b                    48.35896179227198 
_cell_length_c                    40.59136607340125 
_cell_angle_alpha                 90.15468166191279 
_cell_angle_beta                  90.07312192030476 
_cell_angle_gamma                 89.67735988886805 
loop_ 
_atom_site_label 
_atom_site_type_symbol 
_atom_site_fract_x 
_atom_site_fract_y 
_atom_site_fract_z 
_atom_site_charge 
N1          N  0.41501891  0.09964435  0.07738377    -0.27410
N2          N  0.40737589  0.07606318  0.09098390    -0.35270
C3          C  0.42270106  0.05533195  0.07801114     0.00930
C4          C  0.44048829  0.06646483  0.05484764     0.06960
C5          C  0.43503112  0.09454388  0.05503251    -0.06140
H6          H  0.42073810  0.03376993  0.08460414     0.07620
H7          H  0.44520311  0.11020929  0.04042046     0.08820
Cu8        Cu  0.37582656  0.07340809  0.12570249     0.44170
Cu9        Cu  0.39921036  0.13791637  0.09098760     0.41990
Cu10       Cu  0.35138833  0.13902048  0.15946257     0.43880
N11         N  0.34381742  0.07702897  0.15977498    -0.34800
N12         N  0.33579105  0.10079009  0.17303121    -0.29050
C13         C  0.31509030  0.09600751  0.19451711    -0.05150
C14         C  0.30960329  0.06798645  0.19443591     0.07060
C15         C  0.32808985  0.05655573  0.17207977     0.00860
H16         H  0.30431353  0.11187448  0.20847535     0.08510
H17         H  0.33007657  0.03497158  0.16535372     0.07590
N18         N  0.36647850  0.17446013  0.13719222    -0.36250
N19         N  0.38333585  0.17394009  0.11146059    -0.28430
C20         C  0.38855973  0.20001328  0.10200786    -0.03660
C21         C  0.37420067  0.21778154  0.12269982     0.04950
C22         C  0.36065245  0.20093646  0.14493423     0.03040
H23         H  0.40225684  0.20558326  0.08196729     0.08140
H24         H  0.34729913  0.20743885  0.16501523     0.06980
O25         O  0.46946765  0.06342813  0.00785343    -0.73060
O26         O  0.02684002  0.02548209  0.45176016    -0.74040
O27         O  0.46749139  0.02537809  0.45435845    -0.62660
O28         O  0.02797360  0.06335550  0.00535187    -0.71070
O29         O  0.02973640  0.02801399  0.04015029    -0.70630
O30         O  0.46911731  0.99010381  0.48926754    -0.61880
O31         O  0.02759685  0.99001029  0.48642379    -0.74390
O32         O  0.47026309  0.02819430  0.04284727    -0.73170
Cu33       Cu  0.49789130  0.04560881  0.47856908     1.04560
Cu34       Cu  0.49923284  0.00787578  0.01596559     1.04330
C35         C  0.46096854  0.05192530  0.03423112     0.93130
C36         C  0.03605476  0.00167714  0.46010827     0.92270
C37         C  0.45895892  0.00165991  0.46366073     0.84420
C38         C  0.03824852  0.05173964  0.03086664     0.90690
N39         N  0.16461259  0.10092134  0.16752634    -0.27410
N40         N  0.15676808  0.07702117  0.15469726    -0.35270
C41         C  0.17200810  0.05658128  0.16831828     0.00930
C42         C  0.18993520  0.06820616  0.19110366     0.06960
C43         C  0.18465631  0.09629833  0.19004534    -0.06140
H44         H  0.17002463  0.03488151  0.16225567     0.07620
H45         H  0.19510466  0.11229337  0.20398463     0.08820
Cu46       Cu  0.12535393  0.07326335  0.11973975     0.44170
Cu47       Cu  0.14934183  0.13897433  0.15240517     0.41990
Cu48       Cu  0.10093667  0.13769777  0.08442195     0.43880
N49         N  0.09368843  0.07580962  0.08492618    -0.34800
N50         N  0.08569736  0.09930939  0.07115492    -0.29050
C51         C  0.06520470  0.09416873  0.04944916    -0.05150
C52         C  0.05978496  0.06615634  0.04986190     0.07060
C53         C  0.07811908  0.05509830  0.07268379     0.00860
H54         H  0.05445834  0.10981793  0.03518323     0.08510
H55         H  0.08001650  0.03364096  0.07986618     0.07590
N56         N  0.11564244  0.17378527  0.10550439    -0.36250
N57         N  0.13319622  0.17427421  0.13060191    -0.28430
C58         C  0.13854058  0.20071468  0.13856570    -0.03660
C59         C  0.12330277  0.21767231  0.11778549     0.04950
C60         C  0.10924418  0.19988235  0.09690240     0.03040
H61         H  0.15247236  0.20714059  0.15809352     0.08140
H62         H  0.09593090  0.20534726  0.07638928     0.06980
N63         N  0.33236052  0.95514265  0.32669324    -0.27410
N64         N  0.34022631  0.97867054  0.34043476    -0.35270
C65         C  0.32516246  0.99955819  0.32751423     0.00930
C66         C  0.30729539  0.98862484  0.30421584     0.06960
C67         C  0.31242082  0.96046841  0.30427788    -0.06140
H68         H  0.32731837  0.02109120  0.33430055     0.07620
H69         H  0.30202869  0.94491003  0.28959016     0.08820
Cu70       Cu  0.37162185  0.98127994  0.37534601     0.44170
Cu71       Cu  0.34774139  0.91664952  0.34030571     0.41990
Cu72       Cu  0.39602579  0.91607608  0.40876657     0.43880
N73         N  0.40347800  0.97797344  0.40960908    -0.34800
N74         N  0.41163057  0.95426420  0.42273146    -0.29050
C75         C  0.43224407  0.95917701  0.44439089    -0.05150
C76         C  0.43750304  0.98725029  0.44455781     0.07060
C77         C  0.41900314  0.99855587  0.42215887     0.00860
H78         H  0.44312662  0.94337695  0.45827200     0.08510
H79         H  0.41691220  0.02011892  0.41551148     0.07590
N80         N  0.38017840  0.88054049  0.38722460    -0.36250
N81         N  0.36322676  0.88072274  0.36150797    -0.28430
C82         C  0.35760153  0.85448032  0.35277880    -0.03660
C83         C  0.37139628  0.83704279  0.37430069     0.04950
C84         C  0.38560463  0.85419078  0.39571837     0.03040
H85         H  0.34422502  0.84854111  0.33250070     0.08140
H86         H  0.39922622  0.84799022  0.41567760     0.06980
O87         O  0.27801435  0.99201011  0.25746799    -0.73060
O88         O  0.21987928  0.03019701  0.20281600    -0.74040
O89         O  0.27934350  0.03008272  0.20420993    -0.62660
O90         O  0.21962269  0.99233315  0.25630455    -0.70910
O91         O  0.21843078  0.02777140  0.29123191    -0.70630
O92         O  0.27834049  0.06534636  0.23938075    -0.61880
O93         O  0.21971856  0.06567218  0.23769641    -0.74390
O94         O  0.27783810  0.02721727  0.29273530    -0.73170
Cu95       Cu  0.24923052  0.00997577  0.22890124     1.04560
Cu96       Cu  0.24855954  0.04772510  0.26653526     1.04330
C97         C  0.28684455  0.00340903  0.28384560     0.93130
C98         C  0.21075721  0.05398051  0.21152532     0.92270
C99         C  0.28815263  0.05373304  0.21357899     0.84420
C100        C  0.20987595  0.00397446  0.28213644     0.90690
N101        N  0.16489214  0.95601596  0.32496775    -0.27410
N102        N  0.15527535  0.97970219  0.33683824    -0.35270
C103        C  0.16981510  0.00060487  0.32351405     0.00930
C104        C  0.18906216  0.98942032  0.30185155     0.06960
C105        C  0.18533582  0.96117478  0.30332169    -0.06140
H106        H  0.16642593  0.02227805  0.32893882     0.07620
H107        H  0.19705967  0.94545646  0.29021939     0.08820
Cu108      Cu  0.12230962  0.98225828  0.36980147     0.44170
Cu109      Cu  0.15102595  0.91756504  0.33949672     0.41990
Cu110      Cu  0.09486227  0.91633874  0.39784242     0.43880
N111        N  0.08965667  0.97846121  0.40296396    -0.34800
N112        N  0.08055405  0.95447775  0.41412764    -0.29050
C113        C  0.06039872  0.95913751  0.43645704    -0.05150
C114        C  0.05634220  0.98735078  0.43907124     0.07060
C115        C  0.07507720  0.99901615  0.41740382     0.00860
H116        H  0.04916830  0.94313139  0.44934659     0.08510
H117        H  0.07822144  0.02081026  0.41287012     0.07590
N118        N  0.11255379  0.88098892  0.37771985    -0.36250
N119        N  0.13366509  0.88146818  0.35693708    -0.28430
C120        C  0.14111871  0.85539368  0.34937635    -0.03660
C121        C  0.12343539  0.83745852  0.36569551     0.04950
C122        C  0.10574808  0.85456271  0.38363436     0.03040
H123        H  0.15870424  0.85025195  0.33398880     0.08140
H124        H  0.08913393  0.84825650  0.39991230     0.06980
N125        N  0.41254887  0.59968011  0.41732836    -0.27410
N126        N  0.40458007  0.57619324  0.40357050    -0.35270
C127        C  0.41993919  0.55530494  0.41599016     0.00930
C128        C  0.43812291  0.56619172  0.43896816     0.06960
C129        C  0.43286534  0.59432282  0.43925341    -0.06140
H130        H  0.41787193  0.53381726  0.40896023     0.07620
H131        H  0.44349487  0.60985965  0.45373252     0.08820
Cu132      Cu  0.37295300  0.57364315  0.36895599     0.44170
Cu133      Cu  0.39700880  0.63820132  0.40412584     0.41990
Cu134      Cu  0.34873625  0.63889480  0.33563728     0.43880
N135        N  0.34134576  0.57699370  0.33438548    -0.34800
N136        N  0.33329811  0.60073436  0.32125724    -0.29050
C137        C  0.31306340  0.59583727  0.29909486    -0.05150
C138        C  0.30793831  0.56773836  0.29860099     0.07060
C139        C  0.32611834  0.55640360  0.32134234     0.00860
H140        H  0.30241176  0.61164757  0.28498531     0.08510
H141        H  0.32829249  0.53480001  0.32776575     0.07590
N142        N  0.36451441  0.67439153  0.35737073    -0.36250
N143        N  0.38146112  0.67416133  0.38309189    -0.28430
C144        C  0.38708576  0.70038625  0.39189783    -0.03660
C145        C  0.37329424  0.71786522  0.37042248     0.04950
C146        C  0.35909005  0.70075854  0.34895242     0.03040
H147        H  0.40048106  0.70628493  0.41217596     0.08140
H148        H  0.34549373  0.70699869  0.32898714     0.06980
N149        N  0.41386308  0.45391674  0.07121667    -0.27410
N150        N  0.40586273  0.47772831  0.08436354    -0.35270
C151        C  0.42121466  0.49822114  0.07145238     0.00930
C152        C  0.43941138  0.48675089  0.04879415     0.06960
C153        C  0.43415843  0.45868304  0.04918544    -0.06140
H154        H  0.41907382  0.51985995  0.07785498     0.07620
H155        H  0.44476066  0.44279512  0.03507663     0.08820
Cu156      Cu  0.37410148  0.48140793  0.11874086     0.44170
Cu157      Cu  0.39856591  0.41570693  0.08541630     0.41990
Cu158      Cu  0.35079005  0.41702246  0.15394957     0.43880
N159        N  0.34232420  0.47882315  0.15316396    -0.34800
N160        N  0.33467071  0.45530526  0.16691008    -0.29050
C161        C  0.31425262  0.46043374  0.18872815    -0.05150
C162        C  0.30854848  0.48846033  0.18840442     0.07060
C163        C  0.32661538  0.49953686  0.16551216     0.00860
H164        H  0.30390813  0.44480201  0.20322165     0.08510
H165        H  0.32840776  0.52103532  0.15856361     0.07590
N166        N  0.36678611  0.38094750  0.13378496    -0.36250
N167        N  0.38361729  0.38034010  0.10803102    -0.28430
C168        C  0.38943726  0.35383555  0.10042384    -0.03660
C169        C  0.37591491  0.33706841  0.12276824     0.04950
C170        C  0.36157598  0.35490994  0.14338729     0.03040
H171        H  0.40272813  0.34725853  0.08031951     0.08140
H172        H  0.34785837  0.34941240  0.16343797     0.06980
N173        N  0.16422588  0.60031651  0.32290444    -0.27410
N174        N  0.15514792  0.57637897  0.33423453    -0.35270
C175        C  0.17008383  0.55579334  0.32038044     0.00930
C176        C  0.18904253  0.56738696  0.29893443     0.06960
C177        C  0.18473652  0.59559002  0.30105847    -0.06140
H178        H  0.16712142  0.53402804  0.32527100     0.07620
H179        H  0.19609710  0.61155638  0.28825818     0.08820
Cu180      Cu  0.12231288  0.57266546  0.36714986     0.44170
Cu181      Cu  0.14960113  0.63851311  0.33853751     0.41990
Cu182      Cu  0.09337993  0.63741968  0.39682890     0.43880
N183        N  0.08953124  0.57528844  0.40035474    -0.34800
N184        N  0.07985692  0.59901661  0.41203842    -0.29050
C185        C  0.05977391  0.59390666  0.43417572    -0.05150
C186        C  0.05634015  0.56564307  0.43615938     0.07060
C187        C  0.07537844  0.55440101  0.41428315     0.00860
H188        H  0.04815563  0.60965506  0.44735648     0.08510
H189        H  0.07898056  0.53269765  0.40923386     0.07590
N190        N  0.11059099  0.67347556  0.37901726    -0.36250
N191        N  0.13172427  0.67391265  0.35826327    -0.28430
C192        C  0.13849739  0.70032683  0.35221385    -0.03660
C193        C  0.12077194  0.71746744  0.37004539     0.04950
C194        C  0.10309109  0.69956677  0.38642388     0.03040
H195        H  0.15515399  0.70659815  0.33597625     0.08140
H196        H  0.08551087  0.70473998  0.40180350     0.06980
O197        O  0.46796756  0.52765414  0.44918386    -0.73060
O198        O  0.02788249  0.48934606  0.50153852    -0.74040
O199        O  0.46926188  0.48948499  0.50252059    -0.62660
O200        O  0.02737236  0.52725469  0.44803456    -0.71070
O201        O  0.02716972  0.56269318  0.48298205    -0.70630
O202        O  0.46924140  0.52474470  0.03770922    -0.61880
O203        O  0.02870365  0.52478953  0.03644762    -0.74390
O204        O  0.46878334  0.56284459  0.48445808    -0.73170
Cu205      Cu  0.49810217  0.50721382  0.47404509     1.04560
Cu206      Cu  0.49849824  0.54494870  0.01169942     1.04330
C207        C  0.45918045  0.55143442  0.45847250     0.93130
C208        C  0.03761675  0.50104134  0.02731181     0.92270
C209        C  0.46022659  0.50106280  0.02873878     0.84420
C210        C  0.03614291  0.55107302  0.45674622     0.90690
O211        O  0.27831528  0.52664381  0.19904312    -0.73060
O212        O  0.21916188  0.56470656  0.25281729    -0.74040
O213        O  0.27768165  0.56478621  0.25259748    -0.62660
O214        O  0.21880378  0.52666115  0.19909791    -0.71070
O215        O  0.21960144  0.49132566  0.23394405    -0.70630
O216        O  0.27831878  0.52954471  0.28758772    -0.61880
O217        O  0.21893087  0.52927070  0.28753604    -0.74390
O218        O  0.27814586  0.49145649  0.23410895    -0.73170
Cu219      Cu  0.24847416  0.54690192  0.22459339     1.04560
Cu220      Cu  0.24875914  0.50920161  0.26205982     1.04330
C221        C  0.28741777  0.50295955  0.20810412     0.93130
C222        C  0.20993263  0.55304818  0.27876627     0.92270
C223        C  0.28707471  0.55327838  0.27863750     0.84420
C224        C  0.21009184  0.50290251  0.20799404     0.90690
N225        N  0.08507964  0.45409010  0.06923460    -0.27410
N226        N  0.09290130  0.47790886  0.08229694    -0.35270
C227        C  0.07725542  0.49836313  0.06936415     0.00930
C228        C  0.05906642  0.48683195  0.04680593     0.06960
C229        C  0.06462847  0.45878378  0.04726265    -0.06140
H230        H  0.07905077  0.51999520  0.07584919     0.07620
H231        H  0.05404609  0.44284414  0.03337460     0.08820
Cu232      Cu  0.12454520  0.48151596  0.11697838     0.44170
Cu233      Cu  0.10073606  0.41598850  0.08353482     0.41990
Cu234      Cu  0.14916868  0.41688597  0.15150455     0.43880
N235        N  0.15597277  0.47883484  0.15207283    -0.34800
N236        N  0.16400342  0.45524985  0.16560500    -0.29050
C237        C  0.18408271  0.46034840  0.18786808    -0.05150
C238        C  0.18919383  0.48842709  0.18806735     0.07060
C239        C  0.17111670  0.49956174  0.16501465     0.00860
H240        H  0.19470864  0.44465291  0.20218533     0.08510
H241        H  0.16901423  0.52110007  0.15826135     0.07590
N242        N  0.13465102  0.38091538  0.12989806    -0.36250
N243        N  0.11708795  0.38057548  0.10480574    -0.28430
C244        C  0.11179601  0.35418647  0.09655103    -0.03660
C245        C  0.12707877  0.33710298  0.11713428     0.04950
C246        C  0.14110601  0.35476436  0.13820682     0.03040
H247        H  0.09783027  0.34788247  0.07699945     0.08140
H248        H  0.15439726  0.34916715  0.15868886     0.06980
C249        C  0.11695526  0.79346731  0.39573711    -0.20430
C250        C  0.12368786  0.80670810  0.36606747    -0.06990
C251        C  0.12896419  0.79035188  0.33770709     0.13880
C252        C  0.12732503  0.76145410  0.33999659    -0.20480
C253        C  0.12056722  0.74821668  0.36966232    -0.07000
C254        C  0.11531982  0.76457338  0.39802852     0.13870
C255        C  0.10888711  0.75211647  0.43114456    -0.23830
H256        H  0.11306666  0.80589141  0.41755367     0.15150
H257        H  0.13122549  0.74902505  0.31818617     0.15180
C258        C  0.13543821  0.80281495  0.30460666    -0.23780
H259        H  0.10897514  0.76794628  0.45103989     0.05390
H260        H  0.12474066  0.73622087  0.43755487     0.08620
H261        H  0.08777818  0.74301372  0.43090799     0.08620
H262        H  0.15653527  0.81194500  0.30489637     0.08600
H263        H  0.11957837  0.81869389  0.29816075     0.08600
H264        H  0.13540314  0.78698373  0.28471225     0.05380
C265        C  0.36151563  0.76195393  0.39831222    -0.20430
C266        C  0.37309627  0.74835006  0.37099264    -0.06990
C267        C  0.38426434  0.76396288  0.34483982     0.13880
C268        C  0.38323647  0.79295363  0.34645410    -0.20480
C269        C  0.37164285  0.80655778  0.37376523    -0.07000
C270        C  0.36049057  0.79094556  0.39992787     0.13870
C271        C  0.34671754  0.80480604  0.42898442    -0.23830
H272        H  0.35288575  0.74980240  0.41823089     0.15150
H273        H  0.39186416  0.80510503  0.32653396     0.15180
C274        C  0.39805210  0.75010443  0.31579120    -0.23780
H275        H  0.33819713  0.78947946  0.44658930     0.05390
H276        H  0.32923595  0.81806943  0.42032673     0.08620
H277        H  0.36203953  0.81771137  0.44241491     0.08620
H278        H  0.38273605  0.73720749  0.30234040     0.08600
H279        H  0.41552400  0.73683395  0.32446113     0.08600
H280        H  0.40658969  0.76543222  0.29819962     0.05380
C281        C  0.14953959  0.26152823  0.11774180    -0.20430
C282        C  0.12364221  0.24823704  0.11711268    -0.06990
C283        C  0.09892488  0.26429645  0.11688221     0.13880
C284        C  0.10082536  0.29324587  0.11690584    -0.20480
C285        C  0.12672452  0.30653528  0.11758443    -0.07000
C286        C  0.15143940  0.29047551  0.11775704     0.13870
C287        C  0.17984561  0.30355971  0.11652274    -0.23830
H288        H  0.16842007  0.24913951  0.11781087     0.15150
H289        H  0.08194521  0.30563551  0.11685085     0.15180
C290        C  0.07051633  0.25121373  0.11806978    -0.23780
H291        H  0.19664668  0.28780891  0.11410756     0.05390
H292        H  0.18387795  0.31530607  0.13948799     0.08620
H293        H  0.18116703  0.31760866  0.09498842     0.08620
H294        H  0.06916030  0.23717658  0.13961148     0.08600
H295        H  0.06652157  0.23945645  0.09510212     0.08600
H296        H  0.05371131  0.26696590  0.12043549     0.05380
C297        C  0.38330240  0.26242595  0.15047280    -0.20430
C298        C  0.37435260  0.24828981  0.12221551    -0.06990
C299        C  0.36572509  0.26342904  0.09423250     0.13880
C300        C  0.36668945  0.29242474  0.09506797    -0.20480
C301        C  0.37566752  0.30656163  0.12331097    -0.07000
C302        C  0.38425918  0.29142415  0.15131141     0.13870
C303        C  0.39545936  0.30568264  0.18157596    -0.23830
H304        H  0.39000919  0.25065799  0.17180521     0.15150
H305        H  0.35998449  0.30419128  0.07373376     0.15180
C306        C  0.35448728  0.24917453  0.06398419    -0.23780
H307        H  0.40261614  0.29059494  0.20041250     0.05390
H308        H  0.37902622  0.31873654  0.19296629     0.08620
H309        H  0.41347451  0.31878691  0.17478049     0.08620
H310        H  0.33648750  0.23606097  0.07081202     0.08600
H311        H  0.37090729  0.23613163  0.05255138     0.08600
H312        H  0.34729481  0.26426476  0.04516938     0.05380
N313        N  0.41501891  0.09964435  0.57738378    -0.27410
N314        N  0.40737589  0.07606318  0.59098391    -0.35270
C315        C  0.42270106  0.05533195  0.57801115     0.00930
C316        C  0.44048829  0.06646483  0.55484765     0.06960
C317        C  0.43503112  0.09454388  0.55503251    -0.06140
H318        H  0.42073811  0.03376994  0.58460415     0.07620
H319        H  0.44520310  0.11020929  0.54042046     0.08820
Cu320      Cu  0.37582657  0.07340809  0.62570251     0.44170
Cu321      Cu  0.39921036  0.13791637  0.59098761     0.41990
Cu322      Cu  0.35138834  0.13902049  0.65946259     0.43880
N323        N  0.34381743  0.07702898  0.65977501    -0.34800
N324        N  0.33579106  0.10079009  0.67303123    -0.29050
C325        C  0.31509031  0.09600751  0.69451713    -0.05150
C326        C  0.30960331  0.06798646  0.69443594     0.07060
C327        C  0.32808986  0.05655573  0.67207979     0.00860
H328        H  0.30431355  0.11187449  0.70847538     0.08510
H329        H  0.33007658  0.03497158  0.66535374     0.07590
N330        N  0.36647851  0.17446014  0.63719224    -0.36250
N331        N  0.38333586  0.17394009  0.61146060    -0.28430
C332        C  0.38855975  0.20001328  0.60200788    -0.03660
C333        C  0.37420069  0.21778155  0.62269984     0.04950
C334        C  0.36065246  0.20093646  0.64493424     0.03040
H335        H  0.40225685  0.20558326  0.58196730     0.08140
H336        H  0.34729914  0.20743886  0.66501525     0.06980
O337        O  0.46946765  0.06342813  0.50785343    -0.73060
O338        O  0.02684002  0.02548209  0.95176016    -0.74040
O339        O  0.46749140  0.02537808  0.95435845    -0.62660
O340        O  0.02797362  0.06335549  0.50535187    -0.71070
O341        O  0.02973641  0.02801399  0.54015029    -0.70630
O342        O  0.46911733  0.99010381  0.98926755    -0.61880
O343        O  0.02759684  0.99001029  0.98642379    -0.74390
O344        O  0.47026309  0.02819430  0.54284726    -0.73170
Cu345      Cu  0.49789131  0.04560881  0.97856909     1.04560
Cu346      Cu  0.49923283  0.00787579  0.51596557     1.04330
C347        C  0.46096854  0.05192531  0.53423112     0.93130
C348        C  0.03605476  0.00167714  0.96010827     0.92270
C349        C  0.45895894  0.00165990  0.96366074     0.84420
C350        C  0.03824854  0.05173964  0.53086664     0.90690
N351        N  0.16461260  0.10092134  0.66752634    -0.27410
N352        N  0.15676810  0.07702117  0.65469726    -0.35270
C353        C  0.17200811  0.05658128  0.66831829     0.00930
C354        C  0.18993522  0.06820616  0.69110366     0.06960
C355        C  0.18465633  0.09629833  0.69004534    -0.06140
H356        H  0.17002464  0.03488151  0.66225568     0.07620
H357        H  0.19510468  0.11229337  0.70398463     0.08820
Cu358      Cu  0.12535395  0.07326335  0.61973975     0.44170
Cu359      Cu  0.14934185  0.13897433  0.65240516     0.41990
Cu360      Cu  0.10093668  0.13769776  0.58442195     0.43880
N361        N  0.09368845  0.07580962  0.58492617    -0.34800
N362        N  0.08569738  0.09930938  0.57115491    -0.29050
C363        C  0.06520472  0.09416873  0.54944916    -0.05150
C364        C  0.05978497  0.06615633  0.54986190     0.07060
C365        C  0.07811910  0.05509830  0.57268379     0.00860
H366        H  0.05445836  0.10981793  0.53518323     0.08510
H367        H  0.08001652  0.03364095  0.57986618     0.07590
N368        N  0.11564246  0.17378526  0.60550438    -0.36250
N369        N  0.13319624  0.17427421  0.63060190    -0.28430
C370        C  0.13854060  0.20071468  0.63856568    -0.03660
C371        C  0.12330279  0.21767230  0.61778547     0.04950
C372        C  0.10924420  0.19988235  0.59690239     0.03040
H373        H  0.15247239  0.20714059  0.65809350     0.08140
H374        H  0.09593092  0.20534725  0.57638927     0.06980
N375        N  0.33236052  0.95514265  0.82669326    -0.27410
N376        N  0.34022631  0.97867054  0.84043478    -0.35270
C377        C  0.32516246  0.99955819  0.82751425     0.00930
C378        C  0.30729539  0.98862484  0.80421586     0.06960
C379        C  0.31242082  0.96046840  0.80427791    -0.06140
H380        H  0.32731837  0.02109119  0.83430057     0.07620
H381        H  0.30202869  0.94491003  0.78959018     0.08820
Cu382      Cu  0.37162186  0.98127993  0.87534603     0.44170
Cu383      Cu  0.34774140  0.91664951  0.84030572     0.41990
Cu384      Cu  0.39602581  0.91607607  0.90876657     0.43880
N385        N  0.40347802  0.97797344  0.90960908    -0.34800
N386        N  0.41163059  0.95426419  0.92273146    -0.29050
C387        C  0.43224409  0.95917700  0.94439089    -0.05150
C388        C  0.43750306  0.98725028  0.94455781     0.07060
C389        C  0.41900316  0.99855587  0.92215887     0.00860
H390        H  0.44312664  0.94337695  0.95827200     0.08510
H391        H  0.41691222  0.02011891  0.91551149     0.07590
N392        N  0.38017842  0.88054048  0.88722460    -0.36250
N393        N  0.36322677  0.88072274  0.86150797    -0.28430
C394        C  0.35760154  0.85448032  0.85277881    -0.03660
C395        C  0.37139630  0.83704278  0.87430069     0.04950
C396        C  0.38560465  0.85419077  0.89571836     0.03040
H397        H  0.34422502  0.84854110  0.83250071     0.08140
H398        H  0.39922624  0.84799021  0.91567759     0.06980
O399        O  0.27801435  0.99201011  0.75746800    -0.73060
O400        O  0.21987930  0.03019701  0.70281601    -0.74040
O401        O  0.27934352  0.03008272  0.70420995    -0.62660
O402        O  0.21962270  0.99233316  0.75630456    -0.70910
O403        O  0.21843079  0.02777140  0.79123192    -0.70630
O404        O  0.27834049  0.06534636  0.73938077    -0.61880
O405        O  0.21971857  0.06567218  0.73769642    -0.74390
O406        O  0.27783810  0.02721727  0.79273532    -0.73170
Cu407      Cu  0.24923053  0.00997577  0.72890125     1.04560
Cu408      Cu  0.24855954  0.04772510  0.76653528     1.04330
C409        C  0.28684455  0.00340903  0.78384562     0.93130
C410        C  0.21075722  0.05398051  0.71152533     0.92270
C411        C  0.28815264  0.05373304  0.71357901     0.84420
C412        C  0.20987595  0.00397446  0.78213644     0.90690
N413        N  0.16489213  0.95601596  0.82496775    -0.27410
N414        N  0.15527534  0.97970219  0.83683824    -0.35270
C415        C  0.16981511  0.00060487  0.82351406     0.00930
C416        C  0.18906216  0.98942032  0.80185155     0.06960
C417        C  0.18533581  0.96117478  0.80332168    -0.06140
H418        H  0.16642594  0.02227805  0.82893884     0.07620
H419        H  0.19705966  0.94545646  0.79021937     0.08820
Cu420      Cu  0.12230962  0.98225828  0.86980147     0.44170
Cu421      Cu  0.15102593  0.91756504  0.83949670     0.41990
Cu422      Cu  0.09486226  0.91633874  0.89784241     0.43880
N423        N  0.08965667  0.97846121  0.90296396    -0.34800
N424        N  0.08055405  0.95447775  0.91412764    -0.29050
C425        C  0.06039872  0.95913751  0.93645704    -0.05150
C426        C  0.05634220  0.98735078  0.93907124     0.07060
C427        C  0.07507721  0.99901615  0.91740382     0.00860
H428        H  0.04916829  0.94313139  0.94934659     0.08510
H429        H  0.07822144  0.02081026  0.91287013     0.07590
N430        N  0.11255377  0.88098893  0.87771983    -0.36250
N431        N  0.13366506  0.88146818  0.85693706    -0.28430
C432        C  0.14111868  0.85539368  0.84937632    -0.03660
C433        C  0.12343536  0.83745852  0.86569548     0.04950
C434        C  0.10574807  0.85456271  0.88363434     0.03040
H435        H  0.15870421  0.85025195  0.83398876     0.08140
H436        H  0.08913391  0.84825651  0.89991229     0.06980
N437        N  0.41254887  0.59968010  0.91732837    -0.27410
N438        N  0.40458006  0.57619323  0.90357051    -0.35270
C439        C  0.41993919  0.55530494  0.91599018     0.00930
C440        C  0.43812290  0.56619171  0.93896818     0.06960
C441        C  0.43286533  0.59432281  0.93925343    -0.06140
H442        H  0.41787193  0.53381726  0.90896024     0.07620
H443        H  0.44349486  0.60985964  0.95373254     0.08820
Cu444      Cu  0.37295301  0.57364314  0.86895599     0.44170
Cu445      Cu  0.39700879  0.63820131  0.90412585     0.41990
Cu446      Cu  0.34873628  0.63889480  0.83563725     0.43880
N447        N  0.34134578  0.57699370  0.83438547    -0.34800
N448        N  0.33329814  0.60073436  0.82125722    -0.29050
C449        C  0.31306342  0.59583727  0.79909484    -0.05150
C450        C  0.30793833  0.56773835  0.79860098     0.07060
C451        C  0.32611834  0.55640360  0.82134234     0.00860
H452        H  0.30241179  0.61164757  0.78498529     0.08510
H453        H  0.32829248  0.53480001  0.82776575     0.07590
N454        N  0.36451444  0.67439152  0.85737071    -0.36250
N455        N  0.38146113  0.67416132  0.88309188    -0.28430
C456        C  0.38708577  0.70038625  0.89189783    -0.03660
C457        C  0.37329426  0.71786521  0.87042246     0.04950
C458        C  0.35909009  0.70075853  0.84895239     0.03040
H459        H  0.40048105  0.70628492  0.91217597     0.08140
H460        H  0.34549377  0.70699869  0.82898711     0.06980
N461        N  0.41386308  0.45391674  0.57121666    -0.27410
N462        N  0.40586274  0.47772831  0.58436353    -0.35270
C463        C  0.42121465  0.49822114  0.57145236     0.00930
C464        C  0.43941138  0.48675089  0.54879413     0.06960
C465        C  0.43415843  0.45868304  0.54918542    -0.06140
H466        H  0.41907382  0.51985995  0.57785496     0.07620
H467        H  0.44476066  0.44279512  0.53507662     0.08820
Cu468      Cu  0.37410149  0.48140793  0.61874085     0.44170
Cu469      Cu  0.39856592  0.41570693  0.58541630     0.41990
Cu470      Cu  0.35079007  0.41702246  0.65394958     0.43880
N471        N  0.34232420  0.47882315  0.65316396    -0.34800
N472        N  0.33467072  0.45530527  0.66691008    -0.29050
C473        C  0.31425264  0.46043374  0.68872815    -0.05150
C474        C  0.30854849  0.48846033  0.68840442     0.07060
C475        C  0.32661539  0.49953686  0.66551216     0.00860
H476        H  0.30390815  0.44480202  0.70322166     0.08510
H477        H  0.32840776  0.52103532  0.65856360     0.07590
N478        N  0.36678613  0.38094751  0.63378497    -0.36250
N479        N  0.38361731  0.38034011  0.60803103    -0.28430
C480        C  0.38943728  0.35383555  0.60042386    -0.03660
C481        C  0.37591494  0.33706841  0.62276826     0.04950
C482        C  0.36157601  0.35490995  0.64338731     0.03040
H483        H  0.40272814  0.34725853  0.58031952     0.08140
H484        H  0.34785839  0.34941240  0.66343799     0.06980
N485        N  0.16422588  0.60031651  0.82290444    -0.27410
N486        N  0.15514792  0.57637897  0.83423453    -0.35270
C487        C  0.17008383  0.55579334  0.82038044     0.00930
C488        C  0.18904254  0.56738696  0.79893443     0.06960
C489        C  0.18473653  0.59559002  0.80105847    -0.06140
H490        H  0.16712143  0.53402804  0.82527099     0.07620
H491        H  0.19609711  0.61155638  0.78825818     0.08820
Cu492      Cu  0.12231289  0.57266546  0.86714986     0.44170
Cu493      Cu  0.14960114  0.63851312  0.83853750     0.41990
Cu494      Cu  0.09337994  0.63741968  0.89682890     0.43880
N495        N  0.08953124  0.57528844  0.90035473    -0.34800
N496        N  0.07985692  0.59901661  0.91203842    -0.29050
C497        C  0.05977391  0.59390666  0.93417571    -0.05150
C498        C  0.05634014  0.56564307  0.93615937     0.07060
C499        C  0.07537844  0.55440101  0.91428314     0.00860
H500        H  0.04815563  0.60965506  0.94735648     0.08510
H501        H  0.07898056  0.53269766  0.90923385     0.07590
N502        N  0.11059100  0.67347556  0.87901726    -0.36250
N503        N  0.13172427  0.67391265  0.85826327    -0.28430
C504        C  0.13849739  0.70032683  0.85221384    -0.03660
C505        C  0.12077194  0.71746744  0.87004538     0.04950
C506        C  0.10309109  0.69956677  0.88642388     0.03040
H507        H  0.15515399  0.70659815  0.83597624     0.08140
H508        H  0.08551087  0.70473998  0.90180350     0.06980
O509        O  0.46796755  0.52765413  0.94918388    -0.73060
O510        O  0.02788249  0.48934607  0.00153851    -0.74040
O511        O  0.46926188  0.48948498  0.00252061    -0.62660
O512        O  0.02737235  0.52725469  0.94803455    -0.71070
O513        O  0.02716972  0.56269318  0.98298204    -0.70630
O514        O  0.46924140  0.52474470  0.53770920    -0.61880
O515        O  0.02870365  0.52478953  0.53644763    -0.74390
O516        O  0.46878333  0.56284458  0.98445810    -0.73170
Cu517      Cu  0.49810217  0.50721382  0.97404510     1.04560
Cu518      Cu  0.49849824  0.54494871  0.51169940     1.04330
C519        C  0.45918044  0.55143441  0.95847252     0.93130
C520        C  0.03761675  0.50104133  0.52731182     0.92270
C521        C  0.46022658  0.50106280  0.52873876     0.84420
C522        C  0.03614291  0.55107302  0.95674621     0.90690
O523        O  0.27831528  0.52664381  0.69904312    -0.73060
O524        O  0.21916188  0.56470656  0.75281729    -0.74040
O525        O  0.27768166  0.56478621  0.75259747    -0.62660
O526        O  0.21880379  0.52666115  0.69909791    -0.71070
O527        O  0.21960145  0.49132565  0.73394405    -0.70630
O528        O  0.27831878  0.52954471  0.78758772    -0.61880
O529        O  0.21893088  0.52927070  0.78753603    -0.74390
O530        O  0.27814586  0.49145649  0.73410895    -0.73170
Cu531      Cu  0.24847416  0.54690192  0.72459339     1.04560
Cu532      Cu  0.24875915  0.50920161  0.76205982     1.04330
C533        C  0.28741778  0.50295955  0.70810412     0.93130
C534        C  0.20993263  0.55304818  0.77876627     0.92270
C535        C  0.28707472  0.55327838  0.77863750     0.84420
C536        C  0.21009184  0.50290251  0.70799404     0.90690
N537        N  0.08507964  0.45409009  0.56923461    -0.27410
N538        N  0.09290131  0.47790885  0.58229695    -0.35270
C539        C  0.07725542  0.49836313  0.56936416     0.00930
C540        C  0.05906642  0.48683195  0.54680595     0.06960
C541        C  0.06462847  0.45878378  0.54726266    -0.06140
H542        H  0.07905077  0.51999520  0.57584920     0.07620
H543        H  0.05404609  0.44284413  0.53337460     0.08820
Cu544      Cu  0.12454521  0.48151596  0.61697838     0.44170
Cu545      Cu  0.10073607  0.41598850  0.58353481     0.41990
Cu546      Cu  0.14916870  0.41688596  0.65150453     0.43880
N547        N  0.15597278  0.47883484  0.65207283    -0.34800
N548        N  0.16400344  0.45524984  0.66560499    -0.29050
C549        C  0.18408272  0.46034840  0.68786807    -0.05150
C550        C  0.18919384  0.48842709  0.68806735     0.07060
C551        C  0.17111671  0.49956173  0.66501465     0.00860
H552        H  0.19470866  0.44465290  0.70218532     0.08510
H553        H  0.16901424  0.52110006  0.65826136     0.07590
N554        N  0.13465104  0.38091538  0.62989804    -0.36250
N555        N  0.11708797  0.38057548  0.60480573    -0.28430
C556        C  0.11179603  0.35418647  0.59655102    -0.03660
C557        C  0.12707878  0.33710298  0.61713426     0.04950
C558        C  0.14110604  0.35476436  0.63820679     0.03040
H559        H  0.09783027  0.34788247  0.57699944     0.08140
H560        H  0.15439729  0.34916714  0.65868883     0.06980
C561        C  0.11695524  0.79346731  0.89573710    -0.20430
C562        C  0.12368783  0.80670811  0.86606745    -0.06990
C563        C  0.12896416  0.79035188  0.83770707     0.13880
C564        C  0.12732502  0.76145410  0.83999658    -0.20480
C565        C  0.12056721  0.74821668  0.86966231    -0.07000
C566        C  0.11531981  0.76457338  0.89802851     0.13870
C567        C  0.10888711  0.75211648  0.93114455    -0.23830
H568        H  0.11306665  0.80589142  0.91755365     0.15150
H569        H  0.13122547  0.74902505  0.81818616     0.15180
C570        C  0.13543818  0.80281495  0.80460664    -0.23780
H571        H  0.10897514  0.76794629  0.95103988     0.05390
H572        H  0.12474066  0.73622088  0.93755486     0.08620
H573        H  0.08777818  0.74301373  0.93090798     0.08620
H574        H  0.15653523  0.81194500  0.80489634     0.08600
H575        H  0.11957833  0.81869389  0.79816072     0.08600
H576        H  0.13540311  0.78698372  0.78471223     0.05380
C577        C  0.36151566  0.76195392  0.89831221    -0.20430
C578        C  0.37309629  0.74835005  0.87099263    -0.06990
C579        C  0.38426434  0.76396288  0.84483980     0.13880
C580        C  0.38323647  0.79295363  0.84645408    -0.20480
C581        C  0.37164287  0.80655777  0.87376523    -0.07000
C582        C  0.36049061  0.79094555  0.89992788     0.13870
C583        C  0.34671760  0.80480602  0.92898444    -0.23830
H584        H  0.35288580  0.74980239  0.91823090     0.15150
H585        H  0.39186414  0.80510503  0.82653393     0.15180
C586        C  0.39805209  0.75010443  0.81579117    -0.23780
H587        H  0.33819720  0.78947944  0.94658932     0.05390
H588        H  0.32923600  0.81806941  0.92032677     0.08620
H589        H  0.36203960  0.81771135  0.94241492     0.08620
H590        H  0.38273603  0.73720749  0.80234037     0.08600
H591        H  0.41552400  0.73683395  0.82446108     0.08600
H592        H  0.40658967  0.76543222  0.79819958     0.05380
C593        C  0.14953961  0.26152823  0.61774177    -0.20430
C594        C  0.12364223  0.24823704  0.61711266    -0.06990
C595        C  0.09892490  0.26429645  0.61688221     0.13880
C596        C  0.10082538  0.29324587  0.61690583    -0.20480
C597        C  0.12672454  0.30653527  0.61758440    -0.07000
C598        C  0.15143942  0.29047551  0.61775700     0.13870
C599        C  0.17984563  0.30355971  0.61652268    -0.23830
H600        H  0.16842009  0.24913951  0.61781082     0.15150
H601        H  0.08194523  0.30563550  0.61685086     0.15180
C602        C  0.07051635  0.25121373  0.61806979    -0.23780
H603        H  0.19664670  0.28780891  0.61410748     0.05390
H604        H  0.18387798  0.31530607  0.63948792     0.08620
H605        H  0.18116703  0.31760865  0.59498835     0.08620
H606        H  0.06916033  0.23717657  0.63961150     0.08600
H607        H  0.06652158  0.23945644  0.59510214     0.08600
H608        H  0.05371133  0.26696589  0.62043551     0.05380
C609        C  0.38330240  0.26242595  0.65047282    -0.20430
C610        C  0.37435262  0.24828982  0.62221552    -0.06990
C611        C  0.36572514  0.26342905  0.59423250     0.13880
C612        C  0.36668950  0.29242474  0.59506797    -0.20480
C613        C  0.37566755  0.30656164  0.62331099    -0.07000
C614        C  0.38425917  0.29142416  0.65131144     0.13870
C615        C  0.39545934  0.30568263  0.68157600    -0.23830
H616        H  0.39000917  0.25065799  0.67180524     0.15150
H617        H  0.35998456  0.30419129  0.57373376     0.15180
C618        C  0.35448735  0.24917454  0.56398418    -0.23780
H619        H  0.40261610  0.29059494  0.70041255     0.05390
H620        H  0.37902618  0.31873653  0.69296632     0.08620
H621        H  0.41347449  0.31878691  0.67478056     0.08620
H622        H  0.33648756  0.23606098  0.57081199     0.08600
H623        H  0.37090736  0.23613164  0.55255139     0.08600
H624        H  0.34729489  0.26426477  0.54516937     0.05380
N625        N  0.91501890  0.09964435  0.07738377    -0.27410
N626        N  0.90737588  0.07606319  0.09098390    -0.35270
C627        C  0.92270105  0.05533195  0.07801114     0.00930
C628        C  0.94048828  0.06646483  0.05484764     0.06960
C629        C  0.93503111  0.09454388  0.05503250    -0.06140
H630        H  0.92073810  0.03376994  0.08460414     0.07620
H631        H  0.94520309  0.11020929  0.04042045     0.08820
Cu632      Cu  0.87582656  0.07340809  0.12570249     0.44170
Cu633      Cu  0.89921035  0.13791638  0.09098760     0.41990
Cu634      Cu  0.85138833  0.13902049  0.15946258     0.43880
N635        N  0.84381743  0.07702898  0.15977500    -0.34800
N636        N  0.83579106  0.10079009  0.17303122    -0.29050
C637        C  0.81509030  0.09600751  0.19451712    -0.05150
C638        C  0.80960330  0.06798646  0.19443593     0.07060
C639        C  0.82808985  0.05655573  0.17207978     0.00860
H640        H  0.80431354  0.11187449  0.20847537     0.08510
H641        H  0.83007658  0.03497158  0.16535373     0.07590
N642        N  0.86647850  0.17446014  0.13719223    -0.36250
N643        N  0.88333585  0.17394010  0.11146059    -0.28430
C644        C  0.88855973  0.20001328  0.10200786    -0.03660
C645        C  0.87420067  0.21778155  0.12269983     0.04950
C646        C  0.86065245  0.20093646  0.14493423     0.03040
H647        H  0.90225684  0.20558326  0.08196729     0.08140
H648        H  0.84729913  0.20743885  0.16501524     0.06980
O649        O  0.96946764  0.06342813  0.00785342    -0.73060
O650        O  0.52684001  0.02548209  0.45176015    -0.74040
O651        O  0.96749140  0.02537809  0.45435846    -0.62660
O652        O  0.52797361  0.06335549  0.00535188    -0.71070
O653        O  0.52973640  0.02801399  0.04015030    -0.70630
O654        O  0.96911732  0.99010382  0.48926755    -0.61880
O655        O  0.52759684  0.99001029  0.48642378    -0.74390
O656        O  0.97026308  0.02819430  0.04284726    -0.73170
Cu657      Cu  0.99789131  0.04560881  0.47856909     1.04560
Cu658      Cu  0.99923283  0.00787579  0.01596558     1.04330
C659        C  0.96096853  0.05192531  0.03423112     0.93130
C660        C  0.53605475  0.00167714  0.46010826     0.92270
C661        C  0.95895893  0.00165991  0.46366074     0.84420
C662        C  0.53824853  0.05173964  0.03086665     0.90690
N663        N  0.66461259  0.10092134  0.16752635    -0.27410
N664        N  0.65676809  0.07702117  0.15469727    -0.35270
C665        C  0.67200810  0.05658128  0.16831829     0.00930
C666        C  0.68993521  0.06820616  0.19110367     0.06960
C667        C  0.68465632  0.09629833  0.19004535    -0.06140
H668        H  0.67002463  0.03488151  0.16225568     0.07620
H669        H  0.69510467  0.11229337  0.20398464     0.08820
Cu670      Cu  0.62535394  0.07326335  0.11973976     0.44170
Cu671      Cu  0.64934183  0.13897433  0.15240518     0.41990
Cu672      Cu  0.60093667  0.13769777  0.08442197     0.43880
N673        N  0.59368844  0.07580962  0.08492619    -0.34800
N674        N  0.58569737  0.09930939  0.07115493    -0.29050
C675        C  0.56520470  0.09416873  0.04944918    -0.05150
C676        C  0.55978496  0.06615634  0.04986191     0.07060
C677        C  0.57811909  0.05509830  0.07268381     0.00860
H678        H  0.55445835  0.10981793  0.03518324     0.08510
H679        H  0.58001651  0.03364095  0.07986619     0.07590
N680        N  0.61564244  0.17378526  0.10550440    -0.36250
N681        N  0.63319623  0.17427421  0.13060192    -0.28430
C682        C  0.63854059  0.20071468  0.13856570    -0.03660
C683        C  0.62330278  0.21767230  0.11778549     0.04950
C684        C  0.60924418  0.19988235  0.09690241     0.03040
H685        H  0.65247237  0.20714059  0.15809353     0.08140
H686        H  0.59593091  0.20534725  0.07638929     0.06980
N687        N  0.83236053  0.95514266  0.32669325    -0.27410
N688        N  0.84022632  0.97867055  0.34043477    -0.35270
C689        C  0.82516247  0.99955819  0.32751424     0.00930
C690        C  0.80729539  0.98862485  0.30421585     0.06960
C691        C  0.81242083  0.96046841  0.30427790    -0.06140
H692        H  0.82731838  0.02109120  0.33430056     0.07620
H693        H  0.80202870  0.94491003  0.28959017     0.08820
Cu694      Cu  0.87162187  0.98127994  0.37534602     0.44170
Cu695      Cu  0.84774140  0.91664952  0.34030571     0.41990
Cu696      Cu  0.89602580  0.91607608  0.40876658     0.43880
N697        N  0.90347801  0.97797344  0.40960908    -0.34800
N698        N  0.91163058  0.95426420  0.42273147    -0.29050
C699        C  0.93224409  0.95917701  0.44439090    -0.05150
C700        C  0.93750305  0.98725029  0.44455781     0.07060
C701        C  0.91900315  0.99855587  0.42215887     0.00860
H702        H  0.94312663  0.94337696  0.45827201     0.08510
H703        H  0.91691222  0.02011892  0.41551148     0.07590
N704        N  0.88017842  0.88054049  0.38722461    -0.36250
N705        N  0.86322677  0.88072275  0.36150797    -0.28430
C706        C  0.85760154  0.85448032  0.35277881    -0.03660
C707        C  0.87139629  0.83704279  0.37430069     0.04950
C708        C  0.88560464  0.85419078  0.39571837     0.03040
H709        H  0.84422503  0.84854111  0.33250071     0.08140
H710        H  0.89922623  0.84799022  0.41567761     0.06980
O711        O  0.77801435  0.99201012  0.25746800    -0.73060
O712        O  0.71987929  0.03019701  0.20281602    -0.74040
O713        O  0.77934351  0.03008272  0.20420994    -0.62660
O714        O  0.71962270  0.99233315  0.25630456    -0.70910
O715        O  0.71843079  0.02777140  0.29123193    -0.70630
O716        O  0.77834049  0.06534636  0.23938076    -0.61880
O717        O  0.71971857  0.06567218  0.23769642    -0.74390
O718        O  0.77783810  0.02721727  0.29273532    -0.73170
Cu719      Cu  0.74923053  0.00997577  0.22890125     1.04560
Cu720      Cu  0.74855954  0.04772510  0.26653528     1.04330
C721        C  0.78684456  0.00340904  0.28384561     0.93130
C722        C  0.71075722  0.05398051  0.21152534     0.92270
C723        C  0.78815264  0.05373304  0.21357901     0.84420
C724        C  0.70987596  0.00397446  0.28213645     0.90690
N725        N  0.66489214  0.95601596  0.32496776    -0.27410
N726        N  0.65527535  0.97970219  0.33683825    -0.35270
C727        C  0.66981511  0.00060487  0.32351406     0.00930
C728        C  0.68906217  0.98942032  0.30185156     0.06960
C729        C  0.68533582  0.96117478  0.30332170    -0.06140
H730        H  0.66642593  0.02227805  0.32893883     0.07620
H731        H  0.69705968  0.94545646  0.29021940     0.08820
Cu732      Cu  0.62230962  0.98225828  0.36980146     0.44170
Cu733      Cu  0.65102594  0.91756504  0.33949672     0.41990
Cu734      Cu  0.59486226  0.91633874  0.39784241     0.43880
N735        N  0.58965666  0.97846121  0.40296395    -0.34800
N736        N  0.58055404  0.95447775  0.41412763    -0.29050
C737        C  0.56039871  0.95913751  0.43645703    -0.05150
C738        C  0.55634219  0.98735078  0.43907123     0.07060
C739        C  0.57507719  0.99901615  0.41740381     0.00860
H740        H  0.54916829  0.94313139  0.44934658     0.08510
H741        H  0.57822143  0.02081026  0.41287011     0.07590
N742        N  0.61255377  0.88098893  0.37771984    -0.36250
N743        N  0.63366508  0.88146818  0.35693708    -0.28430
C744        C  0.64111870  0.85539368  0.34937634    -0.03660
C745        C  0.62343537  0.83745852  0.36569550     0.04950
C746        C  0.60574807  0.85456271  0.38363434     0.03040
H747        H  0.65870423  0.85025195  0.33398879     0.08140
H748        H  0.58913391  0.84825651  0.39991229     0.06980
N749        N  0.91254888  0.59968011  0.41732836    -0.27410
N750        N  0.90458007  0.57619324  0.40357051    -0.35270
C751        C  0.91993919  0.55530494  0.41599017     0.00930
C752        C  0.93812291  0.56619172  0.43896817     0.06960
C753        C  0.93286535  0.59432282  0.43925342    -0.06140
H754        H  0.91787193  0.53381726  0.40896024     0.07620
H755        H  0.94349488  0.60985964  0.45373252     0.08820
Cu756      Cu  0.87295300  0.57364315  0.36895600     0.44170
Cu757      Cu  0.89700881  0.63820132  0.40412584     0.41990
Cu758      Cu  0.84873626  0.63889481  0.33563728     0.43880
N759        N  0.84134577  0.57699371  0.33438549    -0.34800
N760        N  0.83329812  0.60073437  0.32125724    -0.29050
C761        C  0.81306341  0.59583728  0.29909487    -0.05150
C762        C  0.80793832  0.56773836  0.29860100     0.07060
C763        C  0.82611834  0.55640360  0.32134235     0.00860
H764        H  0.80241177  0.61164758  0.28498532     0.08510
H765        H  0.82829249  0.53480002  0.32776576     0.07590
N766        N  0.86451442  0.67439153  0.35737073    -0.36250
N767        N  0.88146113  0.67416133  0.38309189    -0.28430
C768        C  0.88708577  0.70038625  0.39189783    -0.03660
C769        C  0.87329425  0.71786522  0.37042247     0.04950
C770        C  0.85909007  0.70075854  0.34895241     0.03040
H771        H  0.90048107  0.70628493  0.41217596     0.08140
H772        H  0.84549374  0.70699870  0.32898714     0.06980
N773        N  0.91386308  0.45391674  0.07121667    -0.27410
N774        N  0.90586274  0.47772832  0.08436354    -0.35270
C775        C  0.92121466  0.49822114  0.07145238     0.00930
C776        C  0.93941138  0.48675089  0.04879414     0.06960
C777        C  0.93415844  0.45868304  0.04918543    -0.06140
H778        H  0.91907383  0.51985995  0.07785498     0.07620
H779        H  0.94476066  0.44279512  0.03507663     0.08820
Cu780      Cu  0.87410150  0.48140793  0.11874087     0.44170
Cu781      Cu  0.89856592  0.41570693  0.08541631     0.41990
Cu782      Cu  0.85079008  0.41702246  0.15394960     0.43880
N783        N  0.84232422  0.47882316  0.15316398    -0.34800
N784        N  0.83467073  0.45530527  0.16691010    -0.29050
C785        C  0.81425265  0.46043374  0.18872817    -0.05150
C786        C  0.80854850  0.48846034  0.18840444     0.07060
C787        C  0.82661540  0.49953687  0.16551218     0.00860
H788        H  0.80390816  0.44480202  0.20322167     0.08510
H789        H  0.82840777  0.52103532  0.15856362     0.07590
N790        N  0.86678614  0.38094751  0.13378499    -0.36250
N791        N  0.88361731  0.38034011  0.10803105    -0.28430
C792        C  0.88943728  0.35383555  0.10042387    -0.03660
C793        C  0.87591494  0.33706841  0.12276827     0.04950
C794        C  0.86157601  0.35490995  0.14338732     0.03040
H795        H  0.90272814  0.34725853  0.08031953     0.08140
H796        H  0.84785839  0.34941240  0.16343800     0.06980
N797        N  0.66422588  0.60031651  0.32290443    -0.27410
N798        N  0.65514792  0.57637897  0.33423452    -0.35270
C799        C  0.67008383  0.55579335  0.32038044     0.00930
C800        C  0.68904253  0.56738696  0.29893442     0.06960
C801        C  0.68473653  0.59559002  0.30105846    -0.06140
H802        H  0.66712143  0.53402804  0.32527099     0.07620
H803        H  0.69609710  0.61155638  0.28825817     0.08820
Cu804      Cu  0.62231289  0.57266546  0.36714986     0.44170
Cu805      Cu  0.64960113  0.63851312  0.33853750     0.41990
Cu806      Cu  0.59337994  0.63741968  0.39682890     0.43880
N807        N  0.58953124  0.57528844  0.40035473    -0.34800
N808        N  0.57985693  0.59901661  0.41203842    -0.29050
C809        C  0.55977391  0.59390666  0.43417572    -0.05150
C810        C  0.55634015  0.56564307  0.43615938     0.07060
C811        C  0.57537844  0.55440102  0.41428314     0.00860
H812        H  0.54815564  0.60965506  0.44735648     0.08510
H813        H  0.57898056  0.53269766  0.40923385     0.07590
N814        N  0.61059099  0.67347556  0.37901726    -0.36250
N815        N  0.63172427  0.67391265  0.35826327    -0.28430
C816        C  0.63849738  0.70032683  0.35221384    -0.03660
C817        C  0.62077194  0.71746744  0.37004538     0.04950
C818        C  0.60309109  0.69956677  0.38642388     0.03040
H819        H  0.65515398  0.70659815  0.33597624     0.08140
H820        H  0.58551087  0.70473998  0.40180350     0.06980
O821        O  0.96796756  0.52765414  0.44918387    -0.73060
O822        O  0.52788249  0.48934606  0.50153851    -0.74040
O823        O  0.96926187  0.48948499  0.50252060    -0.62660
O824        O  0.52737236  0.52725469  0.44803455    -0.71070
O825        O  0.52716972  0.56269318  0.48298204    -0.70630
O826        O  0.96924140  0.52474470  0.03770920    -0.61880
O827        O  0.52870365  0.52478953  0.03644763    -0.74390
O828        O  0.96878334  0.56284459  0.48445809    -0.73170
Cu829      Cu  0.99810217  0.50721382  0.47404510     1.04560
Cu830      Cu  0.99849824  0.54494871  0.01169940     1.04330
C831        C  0.95918045  0.55143442  0.45847251     0.93130
C832        C  0.53761675  0.50104133  0.02731182     0.92270
C833        C  0.96022659  0.50106280  0.02873877     0.84420
C834        C  0.53614292  0.55107302  0.45674621     0.90690
O835        O  0.77831529  0.52664382  0.19904313    -0.73060
O836        O  0.71916188  0.56470656  0.25281728    -0.74040
O837        O  0.77768165  0.56478621  0.25259748    -0.62660
O838        O  0.71880379  0.52666115  0.19909791    -0.71070
O839        O  0.71960145  0.49132566  0.23394405    -0.70630
O840        O  0.77831878  0.52954471  0.28758773    -0.61880
O841        O  0.71893088  0.52927070  0.28753603    -0.74390
O842        O  0.77814587  0.49145649  0.23410896    -0.73170
Cu843      Cu  0.74847417  0.54690192  0.22459339     1.04560
Cu844      Cu  0.74875915  0.50920162  0.26205983     1.04330
C845        C  0.78741779  0.50295955  0.20810414     0.93130
C846        C  0.70993263  0.55304818  0.27876627     0.92270
C847        C  0.78707472  0.55327838  0.27863751     0.84420
C848        C  0.71009185  0.50290251  0.20799404     0.90690
N849        N  0.58507965  0.45409009  0.06923460    -0.27410
N850        N  0.59290132  0.47790885  0.08229694    -0.35270
C851        C  0.57725542  0.49836313  0.06936415     0.00930
C852        C  0.55906643  0.48683195  0.04680594     0.06960
C853        C  0.56462848  0.45878378  0.04726265    -0.06140
H854        H  0.57905078  0.51999520  0.07584920     0.07620
H855        H  0.55404610  0.44284413  0.03337460     0.08820
Cu856      Cu  0.62454522  0.48151596  0.11697837     0.44170
Cu857      Cu  0.60073608  0.41598850  0.08353481     0.41990
Cu858      Cu  0.64916871  0.41688596  0.15150453     0.43880
N859        N  0.65597279  0.47883484  0.15207282    -0.34800
N860        N  0.66400344  0.45524984  0.16560499    -0.29050
C861        C  0.68408273  0.46034840  0.18786807    -0.05150
C862        C  0.68919385  0.48842709  0.18806734     0.07060
C863        C  0.67111672  0.49956174  0.16501465     0.00860
H864        H  0.69470866  0.44465291  0.20218532     0.08510
H865        H  0.66901425  0.52110007  0.15826135     0.07590
N866        N  0.63465104  0.38091538  0.12989805    -0.36250
N867        N  0.61708797  0.38057548  0.10480573    -0.28430
C868        C  0.61179603  0.35418647  0.09655102    -0.03660
C869        C  0.62707879  0.33710298  0.11713427     0.04950
C870        C  0.64110604  0.35476436  0.13820680     0.03040
H871        H  0.59783028  0.34788247  0.07699945     0.08140
H872        H  0.65439729  0.34916715  0.15868884     0.06980
C873        C  0.61695525  0.79346731  0.39573711    -0.20430
C874        C  0.62368784  0.80670811  0.36606746    -0.06990
C875        C  0.62896417  0.79035189  0.33770708     0.13880
C876        C  0.62732502  0.76145410  0.33999658    -0.20480
C877        C  0.62056721  0.74821668  0.36966231    -0.07000
C878        C  0.61531981  0.76457338  0.39802851     0.13870
C879        C  0.60888711  0.75211648  0.43114455    -0.23830
H880        H  0.61306665  0.80589142  0.41755366     0.15150
H881        H  0.63122548  0.74902505  0.31818616     0.15180
C882        C  0.63543819  0.80281496  0.30460665    -0.23780
H883        H  0.60897514  0.76794629  0.45103988     0.05390
H884        H  0.62474065  0.73622087  0.43755486     0.08620
H885        H  0.58777818  0.74301373  0.43090798     0.08620
H886        H  0.65653524  0.81194500  0.30489636     0.08600
H887        H  0.61957834  0.81869389  0.29816074     0.08600
H888        H  0.63540312  0.78698373  0.28471224     0.05380
C889        C  0.86151564  0.76195393  0.39831222    -0.20430
C890        C  0.87309628  0.74835006  0.37099264    -0.06990
C891        C  0.88426435  0.76396288  0.34483982     0.13880
C892        C  0.88323648  0.79295363  0.34645410    -0.20480
C893        C  0.87164286  0.80655778  0.37376523    -0.07000
C894        C  0.86049059  0.79094556  0.39992788     0.13870
C895        C  0.84671757  0.80480604  0.42898443    -0.23830
H896        H  0.85288577  0.74980240  0.41823089     0.15150
H897        H  0.89186416  0.80510503  0.32653395     0.15180
C898        C  0.89805211  0.75010443  0.31579120    -0.23780
H899        H  0.83819716  0.78947946  0.44658931     0.05390
H900        H  0.82923597  0.81806943  0.42032675     0.08620
H901        H  0.86203956  0.81771137  0.44241492     0.08620
H902        H  0.88273606  0.73720749  0.30234039     0.08600
H903        H  0.91552401  0.73683395  0.32446112     0.08600
H904        H  0.90658970  0.76543222  0.29819961     0.05380
C905        C  0.64953960  0.26152823  0.11774180    -0.20430
C906        C  0.62364222  0.24823704  0.11711269    -0.06990
C907        C  0.59892489  0.26429645  0.11688222     0.13880
C908        C  0.60082537  0.29324587  0.11690583    -0.20480
C909        C  0.62672454  0.30653528  0.11758442    -0.07000
C910        C  0.65143942  0.29047551  0.11775703     0.13870
C911        C  0.67984563  0.30355970  0.11652273    -0.23830
H912        H  0.66842008  0.24913950  0.11781086     0.15150
H913        H  0.58194523  0.30563551  0.11685085     0.15180
C914        C  0.57051634  0.25121374  0.11806979    -0.23780
H915        H  0.69664670  0.28780890  0.11410754     0.05390
H916        H  0.68387797  0.31530606  0.13948797     0.08620
H917        H  0.68116705  0.31760864  0.09498840     0.08620
H918        H  0.56916031  0.23717658  0.13961150     0.08600
H919        H  0.56652158  0.23945646  0.09510213     0.08600
H920        H  0.55371133  0.26696590  0.12043550     0.05380
C921        C  0.88330239  0.26242594  0.15047282    -0.20430
C922        C  0.87435261  0.24828982  0.12221551    -0.06990
C923        C  0.86572513  0.26342905  0.09423250     0.13880
C924        C  0.86668950  0.29242475  0.09506797    -0.20480
C925        C  0.87566754  0.30656164  0.12331100    -0.07000
C926        C  0.88425917  0.29142415  0.15131144     0.13870
C927        C  0.89545933  0.30568262  0.18157601    -0.23830
H928        H  0.89000915  0.25065798  0.17180524     0.15150
H929        H  0.85998456  0.30419130  0.07373376     0.15180
C930        C  0.85448735  0.24917455  0.06398417    -0.23780
H931        H  0.90261609  0.29059493  0.20041256     0.05390
H932        H  0.87902617  0.31873652  0.19296633     0.08620
H933        H  0.91347448  0.31878690  0.17478057     0.08620
H934        H  0.83648756  0.23606099  0.07081197     0.08600
H935        H  0.87090736  0.23613166  0.05255138     0.08600
H936        H  0.84729489  0.26426478  0.04516936     0.05380
N937        N  0.91501892  0.09964435  0.57738379    -0.27410
N938        N  0.90737590  0.07606319  0.59098391    -0.35270
C939        C  0.92270107  0.05533195  0.57801115     0.00930
C940        C  0.94048830  0.06646483  0.55484765     0.06960
C941        C  0.93503113  0.09454388  0.55503252    -0.06140
H942        H  0.92073811  0.03376994  0.58460415     0.07620
H943        H  0.94520312  0.11020929  0.54042047     0.08820
Cu944      Cu  0.87582657  0.07340809  0.62570250     0.44170
Cu945      Cu  0.89921037  0.13791638  0.59098761     0.41990
Cu946      Cu  0.85138833  0.13902049  0.65946257     0.43880
N947        N  0.84381743  0.07702898  0.65977499    -0.34800
N948        N  0.83579105  0.10079009  0.67303121    -0.29050
C949        C  0.81509030  0.09600752  0.69451711    -0.05150
C950        C  0.80960330  0.06798646  0.69443592     0.07060
C951        C  0.82808985  0.05655573  0.67207977     0.00860
H952        H  0.80431353  0.11187449  0.70847536     0.08510
H953        H  0.83007658  0.03497158  0.66535373     0.07590
N954        N  0.86647850  0.17446014  0.63719223    -0.36250
N955        N  0.88333586  0.17394010  0.61146060    -0.28430
C956        C  0.88855975  0.20001329  0.60200787    -0.03660
C957        C  0.87420068  0.21778155  0.62269983     0.04950
C958        C  0.86065245  0.20093647  0.64493423     0.03040
H959        H  0.90225685  0.20558327  0.58196730     0.08140
H960        H  0.84729913  0.20743886  0.66501523     0.06980
O961        O  0.96946766  0.06342813  0.50785343    -0.73060
O962        O  0.52684003  0.02548209  0.95176016    -0.74040
O963        O  0.96749139  0.02537808  0.95435845    -0.62660
O964        O  0.52797360  0.06335549  0.50535186    -0.71070
O965        O  0.52973640  0.02801399  0.54015028    -0.70630
O966        O  0.96911732  0.99010381  0.98926754    -0.61880
O967        O  0.52759685  0.99001028  0.98642380    -0.74390
O968        O  0.97026310  0.02819431  0.54284727    -0.73170
Cu969      Cu  0.99789130  0.04560881  0.97856908     1.04560
Cu970      Cu  0.99923284  0.00787579  0.51596558     1.04330
C971        C  0.96096855  0.05192531  0.53423113     0.93130
C972        C  0.53605477  0.00167714  0.96010828     0.92270
C973        C  0.95895893  0.00165991  0.96366073     0.84420
C974        C  0.53824853  0.05173964  0.53086663     0.90690
N975        N  0.66461260  0.10092134  0.66752633    -0.27410
N976        N  0.65676809  0.07702116  0.65469725    -0.35270
C977        C  0.67200810  0.05658128  0.66831828     0.00930
C978        C  0.68993521  0.06820615  0.69110365     0.06960
C979        C  0.68465632  0.09629832  0.69004533    -0.06140
H980        H  0.67002463  0.03488151  0.66225567     0.07620
H981        H  0.69510467  0.11229337  0.70398462     0.08820
Cu982      Cu  0.62535394  0.07326335  0.61973974     0.44170
Cu983      Cu  0.64934184  0.13897433  0.65240515     0.41990
Cu984      Cu  0.60093668  0.13769776  0.58442194     0.43880
N985        N  0.59368844  0.07580962  0.58492616    -0.34800
N986        N  0.58569737  0.09930938  0.57115490    -0.29050
C987        C  0.56520471  0.09416873  0.54944915    -0.05150
C988        C  0.55978496  0.06615633  0.54986189     0.07060
C989        C  0.57811909  0.05509830  0.57268378     0.00860
H990        H  0.55445835  0.10981793  0.53518322     0.08510
H991        H  0.58001651  0.03364095  0.57986617     0.07590
N992        N  0.61564245  0.17378526  0.60550437    -0.36250
N993        N  0.63319624  0.17427421  0.63060189    -0.28430
C994        C  0.63854060  0.20071468  0.63856567    -0.03660
C995        C  0.62330278  0.21767230  0.61778546     0.04950
C996        C  0.60924419  0.19988235  0.59690238     0.03040
H997        H  0.65247238  0.20714059  0.65809349     0.08140
H998        H  0.59593091  0.20534725  0.57638926     0.06980
N999        N  0.83236051  0.95514265  0.82669324    -0.27410
N1000       N  0.84022631  0.97867054  0.84043477    -0.35270
C1001       C  0.82516246  0.99955819  0.82751423     0.00930
C1002       C  0.80729539  0.98862485  0.80421584     0.06960
C1003       C  0.81242082  0.96046841  0.80427789    -0.06140
H1004       H  0.82731837  0.02109120  0.83430055     0.07620
H1005       H  0.80202869  0.94491003  0.78959017     0.08820
Cu1006     Cu  0.87162186  0.98127993  0.87534602     0.44170
Cu1007     Cu  0.84774139  0.91664951  0.84030571     0.41990
Cu1008     Cu  0.89602580  0.91607608  0.90876657     0.43880
N1009       N  0.90347801  0.97797344  0.90960908    -0.34800
N1010       N  0.91163058  0.95426419  0.92273146    -0.29050
C1011       C  0.93224408  0.95917701  0.94439089    -0.05150
C1012       C  0.93750305  0.98725028  0.94455780     0.07060
C1013       C  0.91900315  0.99855587  0.92215887     0.00860
H1014       H  0.94312663  0.94337695  0.95827200     0.08510
H1015       H  0.91691221  0.02011892  0.91551148     0.07590
N1016       N  0.88017841  0.88054048  0.88722460    -0.36250
N1017       N  0.86322676  0.88072274  0.86150797    -0.28430
C1018       C  0.85760153  0.85448032  0.85277880    -0.03660
C1019       C  0.87139628  0.83704278  0.87430069     0.04950
C1020       C  0.88560463  0.85419078  0.89571836     0.03040
H1021       H  0.84422501  0.84854111  0.83250071     0.08140
H1022       H  0.89922623  0.84799021  0.91567759     0.06980
O1023       O  0.77801435  0.99201012  0.75746799    -0.73060
O1024       O  0.71987929  0.03019701  0.70281600    -0.74040
O1025       O  0.77934351  0.03008272  0.70420993    -0.62660
O1026       O  0.71962270  0.99233316  0.75630455    -0.70910
O1027       O  0.71843079  0.02777140  0.79123191    -0.70630
O1028       O  0.77834049  0.06534636  0.73938075    -0.61880
O1029       O  0.71971857  0.06567218  0.73769641    -0.74390
O1030       O  0.77783810  0.02721727  0.79273531    -0.73170
Cu1031     Cu  0.74923052  0.00997577  0.72890124     1.04560
Cu1032     Cu  0.74855954  0.04772510  0.76653527     1.04330
C1033       C  0.78684455  0.00340904  0.78384560     0.93130
C1034       C  0.71075721  0.05398051  0.71152532     0.92270
C1035       C  0.78815264  0.05373304  0.71357899     0.84420
C1036       C  0.70987595  0.00397446  0.78213643     0.90690
N1037       N  0.66489214  0.95601596  0.82496775    -0.27410
N1038       N  0.65527535  0.97970219  0.83683825    -0.35270
C1039       C  0.66981511  0.00060487  0.82351406     0.00930
C1040       C  0.68906216  0.98942032  0.80185155     0.06960
C1041       C  0.68533581  0.96117478  0.80332168    -0.06140
H1042       H  0.66642594  0.02227805  0.82893883     0.07620
H1043       H  0.69705966  0.94545646  0.79021938     0.08820
Cu1044     Cu  0.62230963  0.98225828  0.86980148     0.44170
Cu1045     Cu  0.65102594  0.91756504  0.83949671     0.41990
Cu1046     Cu  0.59486228  0.91633874  0.89784242     0.43880
N1047       N  0.58965668  0.97846121  0.90296397    -0.34800
N1048       N  0.58055406  0.95447775  0.91412765    -0.29050
C1049       C  0.56039873  0.95913751  0.93645705    -0.05150
C1050       C  0.55634221  0.98735078  0.93907125     0.07060
C1051       C  0.57507722  0.99901615  0.91740383     0.00860
H1052       H  0.54916831  0.94313139  0.94934660     0.08510
H1053       H  0.57822145  0.02081025  0.91287014     0.07590
N1054       N  0.61255379  0.88098892  0.87771985    -0.36250
N1055       N  0.63366508  0.88146818  0.85693707    -0.28430
C1056       C  0.64111870  0.85539368  0.84937634    -0.03660
C1057       C  0.62343538  0.83745852  0.86569550     0.04950
C1058       C  0.60574809  0.85456271  0.88363435     0.03040
H1059       H  0.65870423  0.85025195  0.83398878     0.08140
H1060       H  0.58913393  0.84825651  0.89991231     0.06980
N1061       N  0.91254886  0.59968011  0.91732837    -0.27410
N1062       N  0.90458006  0.57619323  0.90357051    -0.35270
C1063       C  0.91993918  0.55530494  0.91599017     0.00930
C1064       C  0.93812290  0.56619171  0.93896817     0.06960
C1065       C  0.93286533  0.59432281  0.93925342    -0.06140
H1066       H  0.91787192  0.53381726  0.90896023     0.07620
H1067       H  0.94349486  0.60985964  0.95373253     0.08820
Cu1068     Cu  0.87295299  0.57364314  0.86895600     0.44170
Cu1069     Cu  0.89700878  0.63820131  0.90412585     0.41990
Cu1070     Cu  0.84873625  0.63889480  0.83563727     0.43880
N1071       N  0.84134576  0.57699370  0.83438549    -0.34800
N1072       N  0.83329811  0.60073436  0.82125723    -0.29050
C1073       C  0.81306340  0.59583727  0.79909485    -0.05150
C1074       C  0.80793831  0.56773835  0.79860099     0.07060
C1075       C  0.82611833  0.55640360  0.82134234     0.00860
H1076       H  0.80241177  0.61164757  0.78498530     0.08510
H1077       H  0.82829247  0.53480001  0.82776576     0.07590
N1078       N  0.86451441  0.67439152  0.85737073    -0.36250
N1079       N  0.88146111  0.67416132  0.88309189    -0.28430
C1080       C  0.88708575  0.70038625  0.89189783    -0.03660
C1081       C  0.87329424  0.71786522  0.87042247     0.04950
C1082       C  0.85909006  0.70075853  0.84895241     0.03040
H1083       H  0.90048104  0.70628492  0.91217597     0.08140
H1084       H  0.84549374  0.70699869  0.82898713     0.06980
N1085       N  0.91386307  0.45391674  0.57121666    -0.27410
N1086       N  0.90586273  0.47772832  0.58436353    -0.35270
C1087       C  0.92121465  0.49822114  0.57145237     0.00930
C1088       C  0.93941137  0.48675089  0.54879413     0.06960
C1089       C  0.93415842  0.45868305  0.54918542    -0.06140
H1090       H  0.91907382  0.51985995  0.57785497     0.07620
H1091       H  0.94476065  0.44279513  0.53507662     0.08820
Cu1092     Cu  0.87410148  0.48140794  0.61874085     0.44170
Cu1093     Cu  0.89856590  0.41570694  0.58541629     0.41990
Cu1094     Cu  0.85079006  0.41702246  0.65394958     0.43880
N1095       N  0.84232420  0.47882315  0.65316396    -0.34800
N1096       N  0.83467071  0.45530527  0.66691008    -0.29050
C1097       C  0.81425263  0.46043374  0.68872815    -0.05150
C1098       C  0.80854849  0.48846033  0.68840443     0.07060
C1099       C  0.82661538  0.49953686  0.66551216     0.00860
H1100       H  0.80390814  0.44480201  0.70322166     0.08510
H1101       H  0.82840775  0.52103532  0.65856361     0.07590
N1102       N  0.86678612  0.38094751  0.63378497    -0.36250
N1103       N  0.88361729  0.38034011  0.60803102    -0.28430
C1104       C  0.88943726  0.35383555  0.60042384    -0.03660
C1105       C  0.87591492  0.33706841  0.62276825     0.04950
C1106       C  0.86157599  0.35490995  0.64338730     0.03040
H1107       H  0.90272812  0.34725853  0.58031950     0.08140
H1108       H  0.84785838  0.34941240  0.66343798     0.06980
N1109       N  0.66422587  0.60031650  0.82290443    -0.27410
N1110       N  0.65514791  0.57637897  0.83423452    -0.35270
C1111       C  0.67008382  0.55579334  0.82038043     0.00930
C1112       C  0.68904252  0.56738696  0.79893443     0.06960
C1113       C  0.68473652  0.59559001  0.80105847    -0.06140
H1114       H  0.66712141  0.53402803  0.82527099     0.07620
H1115       H  0.69609710  0.61155637  0.78825817     0.08820
Cu1116     Cu  0.62231287  0.57266546  0.86714985     0.44170
Cu1117     Cu  0.64960113  0.63851311  0.83853750     0.41990
Cu1118     Cu  0.59337993  0.63741968  0.89682890     0.43880
N1119       N  0.58953123  0.57528844  0.90035473    -0.34800
N1120       N  0.57985691  0.59901661  0.91203842    -0.29050
C1121       C  0.55977390  0.59390666  0.93417572    -0.05150
C1122       C  0.55634014  0.56564307  0.93615938     0.07060
C1123       C  0.57537843  0.55440101  0.91428314     0.00860
H1124       H  0.54815563  0.60965506  0.94735648     0.08510
H1125       H  0.57898055  0.53269765  0.90923385     0.07590
N1126       N  0.61059099  0.67347556  0.87901726    -0.36250
N1127       N  0.63172426  0.67391265  0.85826327    -0.28430
C1128       C  0.63849739  0.70032683  0.85221385    -0.03660
C1129       C  0.62077194  0.71746744  0.87004539     0.04950
C1130       C  0.60309109  0.69956677  0.88642388     0.03040
H1131       H  0.65515399  0.70659814  0.83597625     0.08140
H1132       H  0.58551087  0.70473998  0.90180350     0.06980
O1133       O  0.96796755  0.52765414  0.94918387    -0.73060
O1134       O  0.52788250  0.48934606  0.00153852    -0.74040
O1135       O  0.96926188  0.48948499  0.00252060    -0.62660
O1136       O  0.52737235  0.52725469  0.94803456    -0.71070
O1137       O  0.52716972  0.56269318  0.98298205    -0.70630
O1138       O  0.96924140  0.52474470  0.53770921    -0.61880
O1139       O  0.52870365  0.52478953  0.53644762    -0.74390
O1140       O  0.96878333  0.56284459  0.98445809    -0.73170
Cu1141     Cu  0.99810217  0.50721382  0.97404509     1.04560
Cu1142     Cu  0.99849824  0.54494871  0.51169941     1.04330
C1143       C  0.95918044  0.55143442  0.95847251     0.93130
C1144       C  0.53761675  0.50104133  0.52731181     0.92270
C1145       C  0.96022658  0.50106280  0.52873877     0.84420
C1146       C  0.53614291  0.55107302  0.95674622     0.90690
O1147       O  0.77831527  0.52664381  0.69904312    -0.73060
O1148       O  0.71916187  0.56470656  0.75281728    -0.74040
O1149       O  0.77768164  0.56478620  0.75259748    -0.62660
O1150       O  0.71880378  0.52666114  0.69909791    -0.71070
O1151       O  0.71960144  0.49132565  0.73394404    -0.70630
O1152       O  0.77831877  0.52954470  0.78758772    -0.61880
O1153       O  0.71893087  0.52927069  0.78753603    -0.74390
O1154       O  0.77814585  0.49145649  0.73410895    -0.73170
Cu1155     Cu  0.74847415  0.54690191  0.72459339     1.04560
Cu1156     Cu  0.74875913  0.50920161  0.76205982     1.04330
C1157       C  0.78741777  0.50295955  0.70810413     0.93130
C1158       C  0.70993262  0.55304818  0.77876627     0.92270
C1159       C  0.78707471  0.55327838  0.77863750     0.84420
C1160       C  0.71009184  0.50290250  0.70799404     0.90690
N1161       N  0.58507964  0.45409009  0.56923459    -0.27410
N1162       N  0.59290131  0.47790885  0.58229694    -0.35270
C1163       C  0.57725541  0.49836313  0.56936415     0.00930
C1164       C  0.55906642  0.48683195  0.54680593     0.06960
C1165       C  0.56462847  0.45878378  0.54726264    -0.06140
H1166       H  0.57905077  0.51999520  0.57584920     0.07620
H1167       H  0.55404610  0.44284414  0.53337458     0.08820
Cu1168     Cu  0.62454520  0.48151595  0.61697837     0.44170
Cu1169     Cu  0.60073607  0.41598849  0.58353480     0.41990
Cu1170     Cu  0.64916870  0.41688596  0.65150452     0.43880
N1171       N  0.65597278  0.47883483  0.65207282    -0.34800
N1172       N  0.66400343  0.45524984  0.66560499    -0.29050
C1173       C  0.68408272  0.46034839  0.68786807    -0.05150
C1174       C  0.68919384  0.48842708  0.68806734     0.07060
C1175       C  0.67111670  0.49956173  0.66501465     0.00860
H1176       H  0.69470865  0.44465290  0.70218531     0.08510
H1177       H  0.66901423  0.52110006  0.65826136     0.07590
N1178       N  0.63465104  0.38091537  0.62989803    -0.36250
N1179       N  0.61708797  0.38057548  0.60480571    -0.28430
C1180       C  0.61179603  0.35418647  0.59655100    -0.03660
C1181       C  0.62707878  0.33710298  0.61713425     0.04950
C1182       C  0.64110603  0.35476435  0.63820678     0.03040
H1183       H  0.59783027  0.34788247  0.57699943     0.08140
H1184       H  0.65439729  0.34916714  0.65868881     0.06980
C1185       C  0.61695526  0.79346731  0.89573711    -0.20430
C1186       C  0.62368786  0.80670810  0.86606747    -0.06990
C1187       C  0.62896419  0.79035188  0.83770709     0.13880
C1188       C  0.62732503  0.76145410  0.83999659    -0.20480
C1189       C  0.62056722  0.74821667  0.86966232    -0.07000
C1190       C  0.61531982  0.76457338  0.89802852     0.13870
C1191       C  0.60888711  0.75211647  0.93114455    -0.23830
H1192       H  0.61306666  0.80589142  0.91755366     0.15150
H1193       H  0.63122549  0.74902505  0.81818617     0.15180
C1194       C  0.63543821  0.80281495  0.80460665    -0.23780
H1195       H  0.60897514  0.76794628  0.95103989     0.05390
H1196       H  0.62474066  0.73622087  0.93755486     0.08620
H1197       H  0.58777818  0.74301373  0.93090799     0.08620
H1198       H  0.65653527  0.81194499  0.80489637     0.08600
H1199       H  0.61957837  0.81869389  0.79816074     0.08600
H1200       H  0.63540314  0.78698373  0.78471224     0.05380
C1201       C  0.86151563  0.76195393  0.89831222    -0.20430
C1202       C  0.87309627  0.74835005  0.87099264    -0.06990
C1203       C  0.88426433  0.76396288  0.84483981     0.13880
C1204       C  0.88323646  0.79295363  0.84645409    -0.20480
C1205       C  0.87164285  0.80655777  0.87376523    -0.07000
C1206       C  0.86049058  0.79094555  0.89992787     0.13870
C1207       C  0.84671756  0.80480603  0.92898443    -0.23830
H1208       H  0.85288576  0.74980240  0.91823090     0.15150
H1209       H  0.89186415  0.80510502  0.82653395     0.15180
C1210       C  0.89805209  0.75010442  0.81579119    -0.23780
H1211       H  0.83819715  0.78947946  0.94658931     0.05390
H1212       H  0.82923596  0.81806943  0.92032675     0.08620
H1213       H  0.86203955  0.81771136  0.94241491     0.08620
H1214       H  0.88273604  0.73720749  0.80234039     0.08600
H1215       H  0.91552399  0.73683395  0.82446112     0.08600
H1216       H  0.90658968  0.76543221  0.79819961     0.05380
C1217       C  0.64953960  0.26152823  0.61774176    -0.20430
C1218       C  0.62364223  0.24823704  0.61711265    -0.06990
C1219       C  0.59892490  0.26429645  0.61688219     0.13880
C1220       C  0.60082537  0.29324586  0.61690581    -0.20480
C1221       C  0.62672454  0.30653527  0.61758439    -0.07000
C1222       C  0.65143942  0.29047550  0.61775699     0.13870
C1223       C  0.67984563  0.30355970  0.61652267    -0.23830
H1224       H  0.66842008  0.24913950  0.61781081     0.15150
H1225       H  0.58194522  0.30563550  0.61685084     0.15180
C1226       C  0.57051634  0.25121373  0.61806978    -0.23780
H1227       H  0.69664669  0.28780890  0.61410748     0.05390
H1228       H  0.68387798  0.31530607  0.63948791     0.08620
H1229       H  0.68116703  0.31760864  0.59498834     0.08620
H1230       H  0.56916032  0.23717657  0.63961149     0.08600
H1231       H  0.56652158  0.23945644  0.59510212     0.08600
H1232       H  0.55371133  0.26696589  0.62043549     0.05380
C1233       C  0.88330241  0.26242595  0.65047280    -0.20430
C1234       C  0.87435261  0.24828982  0.62221551    -0.06990
C1235       C  0.86572510  0.26342905  0.59423251     0.13880
C1236       C  0.86668946  0.29242474  0.59506797    -0.20480
C1237       C  0.87566753  0.30656164  0.62331097    -0.07000
C1238       C  0.88425919  0.29142416  0.65131141     0.13870
C1239       C  0.89545938  0.30568264  0.68157596    -0.23830
H1240       H  0.89000920  0.25065800  0.67180521     0.15150
H1241       H  0.85998450  0.30419129  0.57373376     0.15180
C1242       C  0.85448729  0.24917454  0.56398420    -0.23780
H1243       H  0.90261616  0.29059495  0.70041250     0.05390
H1244       H  0.87902623  0.31873654  0.69296630     0.08620
H1245       H  0.91347452  0.31878691  0.67478049     0.08620
H1246       H  0.83648751  0.23606098  0.57081203     0.08600
H1247       H  0.87090730  0.23613164  0.55255139     0.08600
H1248       H  0.84729482  0.26426476  0.54516939     0.05380
loop_ 
_geom_bond_atom_site_label_1 
_geom_bond_atom_site_label_2 
_geom_bond_distance 
_geom_bond_site_symmetry_2 
_ccdc_geom_bond_type 
N1            N2   1.322       .  A
N1            C5   1.343       .  A
N1           Cu9   2.070       .  S
N2            C3   1.347       .  A
N2           Cu8   2.075       .  S
C3            C4   1.383       .  A
C3            H6   1.082       .  S
C4            C5   1.381       .  A
C4           C35   1.467       .  S
C5            H7   1.082       .  S
Cu8          N11   2.075       .  S
Cu9          N19   2.070       .  S
Cu10         N12   2.075       .  S
Cu10         N18   2.074       .  S
N11          N12   1.323       .  A
N11          C15   1.346       .  A
N12          C13   1.344       .  A
C13          C14   1.382       .  A
C13          H16   1.082       .  S
C14          C15   1.382       .  A
C14          C99   1.467       .  S
C15          H17   1.082       .  S
N18          N19   1.322       .  A
N18          C22   1.345       .  A
N19          C20   1.344       .  A
C20          C21   1.382       .  A
C20          H23   1.082       .  S
C21          C22   1.383       .  A
C21         C298   1.476       .  S
C22          H24   1.082       .  S
O25          C35   1.276       .  A
O25        Cu345   2.000   1_554  S
O26          C36   1.277       .  A
O26        Cu657   2.011   1_455  S
O27          C37   1.278       .  A
O27         Cu33   2.015       .  S
O28          C38   1.277       .  A
O28        Cu969   2.002   1_454  S
O29          C38   1.278       .  A
O29        Cu658   2.016   1_455  S
O30          C37   1.276   1_565  A
O30        Cu346   2.002   1_565  S
O31          C36   1.277   1_565  A
O31        Cu970   2.006   1_465  S
O32          C35   1.278       .  A
O32         Cu34   2.018       .  S
Cu33        O337   2.000       .  S
Cu33        O650   2.011       .  S
Cu33        O964   2.002       .  S
Cu33       Cu346   2.377       .  S
Cu34        O653   2.016       .  S
Cu34        O342   2.002   1_544  S
Cu34        O967   2.006   1_544  S
Cu34       Cu345   2.377   1_554  S
C36         C114   1.466   1_545  S
C37          C76   1.466   1_545  S
C38          C52   1.467       .  S
N39          N40   1.323       .  A
N39          C43   1.344       .  A
N39         Cu47   2.071       .  S
N40          C41   1.346       .  A
N40         Cu46   2.078       .  S
C41          C42   1.383       .  A
C41          H44   1.082       .  S
C42          C43   1.381       .  A
C42          C98   1.467       .  S
C43          H45   1.082       .  S
Cu46         N49   2.077       .  S
Cu47         N57   2.071       .  S
Cu48         N50   2.069       .  S
Cu48         N56   2.069       .  S
N49          N50   1.323       .  A
N49          C53   1.347       .  A
N50          C51   1.343       .  A
C51          C52   1.381       .  A
C51          H54   1.082       .  S
C52          C53   1.383       .  A
C53          H55   1.082       .  S
N56          N57   1.321       .  A
N56          C60   1.344       .  A
N57          C58   1.344       .  A
C58          C59   1.384       .  A
C58          H61   1.082       .  S
C59          C60   1.384       .  A
C59         C282   1.479       .  S
C60          H62   1.081       .  S
N63          N64   1.323       .  A
N63          C67   1.344       .  A
N63         Cu71   2.075       .  S
N64          C65   1.346       .  A
N64         Cu70   2.071       .  S
C65          C66   1.382       .  A
C65          H68   1.082   1_565  S
C66          C67   1.382       .  A
C66          C97   1.467   1_565  S
C67          H69   1.082       .  S
Cu70         N73   2.071       .  S
Cu71         N81   2.074       .  S
Cu72         N74   2.074       .  S
Cu72         N80   2.074       .  S
N73          N74   1.323       .  A
N73          C77   1.345       .  A
N74          C75   1.344       .  A
C75          C76   1.382       .  A
C75          H78   1.082       .  S
C76          C77   1.382       .  A
C77          H79   1.082   1_565  S
N80          N81   1.323       .  A
N80          C84   1.345       .  A
N81          C82   1.345       .  A
C82          C83   1.382       .  A
C82          H85   1.082       .  S
C83          C84   1.382       .  A
C83         C269   1.474       .  S
C84          H86   1.082       .  S
O87          C97   1.276   1_565  A
O87         Cu95   1.999   1_565  S
O88          C98   1.278       .  A
O88         Cu95   2.012       .  S
O89          C99   1.278       .  A
O89         Cu95   2.016       .  S
O90         C100   1.277   1_565  A
O90         Cu95   2.002   1_565  S
O91         C100   1.277       .  A
O91         Cu96   2.013       .  S
O92          C99   1.276       .  A
O92         Cu96   2.002       .  S
O93          C98   1.277       .  A
O93         Cu96   2.007       .  S
O94          C97   1.279       .  A
O94         Cu96   2.019       .  S
Cu95        Cu96   2.377       .  S
C100        C104   1.465   1_545  S
N101        N102   1.322       .  A
N101        C105   1.343       .  A
N101       Cu109   2.066       .  S
N102        C103   1.347   1_565  A
N102       Cu108   2.076       .  S
C103        C104   1.383   1_545  A
C103        H106   1.082       .  S
C104        C105   1.380       .  A
C105        H107   1.082       .  S
Cu108       N111   2.076       .  S
Cu109       N119   2.066       .  S
Cu110       N112   2.071       .  S
Cu110       N118   2.071       .  S
N111        N112   1.323       .  A
N111        C115   1.346       .  A
N112        C113   1.344       .  A
C113        C114   1.381       .  A
C113        H116   1.082       .  S
C114        C115   1.382       .  A
C115        H117   1.082   1_565  S
N118        N119   1.320       .  A
N118        C122   1.343       .  A
N119        C120   1.344       .  A
C120        C121   1.387       .  A
C120        H123   1.078       .  S
C121        C122   1.388       .  A
C121        C250   1.487       .  S
C122        H124   1.082       .  S
N125        N126   1.323       .  A
N125        C129   1.344       .  A
N125       Cu133   2.074       .  S
N126        C127   1.346       .  A
N126       Cu132   2.071       .  S
C127        C128   1.382       .  A
C127        H130   1.082       .  S
C128        C129   1.382       .  A
C128        C207   1.466       .  S
C129        H131   1.082       .  S
Cu132       N135   2.071       .  S
Cu133       N143   2.074       .  S
Cu134       N136   2.075       .  S
Cu134       N142   2.074       .  S
N135        N136   1.323       .  A
N135        C139   1.345       .  A
N136        C137   1.345       .  A
C137        C138   1.382       .  A
C137        H140   1.082       .  S
C138        C139   1.382       .  A
C138        C223   1.467       .  S
C139        H141   1.082       .  S
N142        N143   1.323       .  A
N142        C146   1.345       .  A
N143        C144   1.345       .  A
C144        C145   1.382       .  A
C144        H147   1.082       .  S
C145        C146   1.382       .  A
C145        C266   1.474       .  S
C146        H148   1.082       .  S
N149        N150   1.323       .  A
N149        C153   1.344       .  A
N149       Cu157   2.075       .  S
N150        C151   1.346       .  A
N150       Cu156   2.075       .  S
C151        C152   1.382       .  A
C151        H154   1.082       .  S
C152        C153   1.382       .  A
C152        C209   1.467       .  S
C153        H155   1.082       .  S
Cu156       N159   2.074       .  S
Cu157       N167   2.075       .  S
Cu158       N160   2.069       .  S
Cu158       N166   2.069       .  S
N159        N160   1.322       .  A
N159        C163   1.346       .  A
N160        C161   1.343       .  A
C161        C162   1.381       .  A
C161        H164   1.082       .  S
C162        C163   1.383       .  A
C162        C221   1.467       .  S
C163        H165   1.082       .  S
N166        N167   1.322       .  A
N166        C170   1.344       .  A
N167        C168   1.345       .  A
C168        C169   1.383       .  A
C168        H171   1.082       .  S
C169        C170   1.382       .  A
C169        C301   1.476       .  S
C170        H172   1.082       .  S
N173        N174   1.323       .  A
N173        C177   1.344       .  A
N173       Cu181   2.071       .  S
N174        C175   1.346       .  A
N174       Cu180   2.076       .  S
C175        C176   1.382       .  A
C175        H178   1.082       .  S
C176        C177   1.381       .  A
C176        C222   1.465       .  S
C177        H179   1.082       .  S
Cu180       N183   2.076       .  S
Cu181       N191   2.070       .  S
Cu182       N184   2.067       .  S
Cu182       N190   2.066       .  S
N183        N184   1.322       .  A
N183        C187   1.347       .  A
N184        C185   1.343       .  A
C185        C186   1.380       .  A
C185        H188   1.082       .  S
C186        C187   1.383       .  A
C186        C210   1.465       .  S
C187        H189   1.082       .  S
N190        N191   1.320       .  A
N190        C194   1.344       .  A
N191        C192   1.343       .  A
C192        C193   1.387       .  A
C192        H195   1.082       .  S
C193        C194   1.387       .  A
C193        C253   1.487       .  S
C194        H196   1.078       .  S
O197        C207   1.279       .  A
O197       Cu205   2.018       .  S
O198        C520   1.277       .  A
O198       Cu829   2.006   1_455  S
O199        C521   1.276       .  A
O199       Cu205   2.002       .  S
O200        C210   1.277       .  A
O200       Cu829   2.013   1_455  S
O201        C210   1.277       .  A
O201      Cu1142   2.003   1_455  S
O202        C209   1.278       .  A
O202       Cu206   2.016       .  S
O203        C208   1.277       .  A
O203       Cu830   2.012   1_455  S
O204        C207   1.276       .  A
O204       Cu518   1.998       .  S
Cu205       O822   2.006       .  S
Cu205       O824   2.013       .  S
Cu205      Cu518   2.377       .  S
Cu206      O1137   2.003   1_554  S
Cu206       O827   2.012       .  S
Cu206       O516   1.998   1_554  S
Cu206      Cu517   2.377   1_554  S
C208        C228   1.467       .  S
C208        O510   1.277       .  A
C209        O511   1.276       .  A
O211        C221   1.278       .  A
O211       Cu219   2.017       .  S
O212        C222   1.277       .  A
O212       Cu219   2.005       .  S
O213        C223   1.276       .  A
O213       Cu219   2.002       .  S
O214        C224   1.278       .  A
O214       Cu219   2.016       .  S
O215        C224   1.277       .  A
O215       Cu220   2.003       .  S
O216        C223   1.278       .  A
O216       Cu220   2.015       .  S
O217        C222   1.277       .  A
O217       Cu220   2.011       .  S
O218        C221   1.276       .  A
O218       Cu220   2.000       .  S
Cu219      Cu220   2.377       .  S
C224        C238   1.467       .  S
N225        N226   1.323       .  A
N225        C229   1.344       .  A
N225       Cu233   2.070       .  S
N226        C227   1.346       .  A
N226       Cu232   2.077       .  S
C227        C228   1.383       .  A
C227        H230   1.082       .  S
C228        C229   1.381       .  A
C229        H231   1.082       .  S
Cu232       N235   2.077       .  S
Cu233       N243   2.070       .  S
Cu234       N236   2.070       .  S
Cu234       N242   2.070       .  S
N235        N236   1.323       .  A
N235        C239   1.347       .  A
N236        C237   1.344       .  A
C237        C238   1.381       .  A
C237        H240   1.082       .  S
C238        C239   1.383       .  A
C239        H241   1.082       .  S
N242        N243   1.321       .  A
N242        C246   1.344       .  A
N243        C244   1.344       .  A
C244        C245   1.383       .  A
C244        H247   1.082       .  S
C245        C246   1.384       .  A
C245        C285   1.479       .  S
C246        H248   1.081       .  S
C249        C250   1.404       .  A
C249        C254   1.403       .  A
C249        H256   1.085       .  S
C250        C251   1.417       .  A
C251        C252   1.403       .  A
C251        C258   1.508       .  S
C252        C253   1.404       .  A
C252        H257   1.085       .  S
C253        C254   1.417       .  A
C254        C255   1.508       .  S
C255        H259   1.111       .  S
C255        H260   1.110       .  S
C255        H261   1.107       .  S
C258        H262   1.107       .  S
C258        H263   1.110       .  S
C258        H264   1.111       .  S
C265        C266   1.402       .  A
C265        C270   1.404       .  A
C265        H272   1.085       .  S
C266        C267   1.412       .  A
C267        C268   1.404       .  A
C267        C274   1.507       .  S
C268        C269   1.402       .  A
C268        H273   1.085       .  S
C269        C270   1.412       .  A
C270        C271   1.507       .  S
C271        H275   1.111       .  S
C271        H276   1.111       .  S
C271        H277   1.109       .  S
C274        H278   1.109       .  S
C274        H279   1.111       .  S
C274        H280   1.111       .  S
C281        C282   1.403       .  A
C281        C286   1.403       .  A
C281        H288   1.084       .  S
C282        C283   1.414       .  A
C283        C284   1.403       .  A
C283        C290   1.507       .  S
C284        C285   1.403       .  A
C284        H289   1.084       .  S
C285        C286   1.414       .  A
C286        C287   1.507       .  S
C287        H291   1.110       .  S
C287        H292   1.108       .  S
C287        H293   1.111       .  S
C290        H294   1.111       .  S
C290        H295   1.108       .  S
C290        H296   1.110       .  S
C297        C298   1.402       .  A
C297        C302   1.404       .  A
C297        H304   1.085       .  S
C298        C299   1.413       .  A
C299        C300   1.404       .  A
C299        C306   1.507       .  S
C300        C301   1.402       .  A
C300        H305   1.085       .  S
C301        C302   1.413       .  A
C302        C303   1.507       .  S
C303        H307   1.111       .  S
C303        H308   1.108       .  S
C303        H309   1.110       .  S
C306        H310   1.110       .  S
C306        H311   1.108       .  S
C306        H312   1.111       .  S
N313        N314   1.322       .  A
N313        C317   1.343       .  A
N313       Cu321   2.070       .  S
N314        C315   1.347       .  A
N314       Cu320   2.075       .  S
C315        C316   1.383       .  A
C315        H318   1.082       .  S
C316        C317   1.381       .  A
C316        C347   1.467       .  S
C317        H319   1.082       .  S
Cu320       N323   2.075       .  S
Cu321       N331   2.070       .  S
Cu322       N324   2.075       .  S
Cu322       N330   2.074       .  S
N323        N324   1.323       .  A
N323        C327   1.346       .  A
N324        C325   1.344       .  A
C325        C326   1.382       .  A
C325        H328   1.082       .  S
C326        C327   1.382       .  A
C326        C411   1.467       .  S
C327        H329   1.082       .  S
N330        N331   1.322       .  A
N330        C334   1.345       .  A
N331        C332   1.344       .  A
C332        C333   1.382       .  A
C332        H335   1.082       .  S
C333        C334   1.383       .  A
C333        C610   1.476       .  S
C334        H336   1.082       .  S
O337        C347   1.276       .  A
O338        C348   1.277       .  A
O338       Cu969   2.011   1_455  S
O339        C349   1.278       .  A
O339       Cu345   2.015       .  S
O340        C350   1.277       .  A
O340       Cu657   2.002   1_455  S
O341        C350   1.278       .  A
O341       Cu970   2.016   1_455  S
O342        C349   1.276   1_565  A
O343        C348   1.277   1_565  A
O343       Cu658   2.006   1_466  S
O344        C347   1.278       .  A
O344       Cu346   2.018       .  S
Cu345       O962   2.011       .  S
Cu345       O652   2.002   1_556  S
Cu346       O965   2.016       .  S
Cu346       O655   2.006   1_545  S
C348        C426   1.466   1_545  S
C349        C388   1.466   1_545  S
C350        C364   1.467       .  S
N351        N352   1.323       .  A
N351        C355   1.344       .  A
N351       Cu359   2.071       .  S
N352        C353   1.346       .  A
N352       Cu358   2.078       .  S
C353        C354   1.383       .  A
C353        H356   1.082       .  S
C354        C355   1.381       .  A
C354        C410   1.467       .  S
C355        H357   1.082       .  S
Cu358       N361   2.077       .  S
Cu359       N369   2.071       .  S
Cu360       N362   2.069       .  S
Cu360       N368   2.069       .  S
N361        N362   1.323       .  A
N361        C365   1.347       .  A
N362        C363   1.343       .  A
C363        C364   1.381       .  A
C363        H366   1.082       .  S
C364        C365   1.383       .  A
C365        H367   1.082       .  S
N368        N369   1.321       .  A
N368        C372   1.344       .  A
N369        C370   1.344       .  A
C370        C371   1.384       .  A
C370        H373   1.082       .  S
C371        C372   1.384       .  A
C371        C594   1.479       .  S
C372        H374   1.081       .  S
N375        N376   1.323       .  A
N375        C379   1.344       .  A
N375       Cu383   2.075       .  S
N376        C377   1.346       .  A
N376       Cu382   2.071       .  S
C377        C378   1.382       .  A
C377        H380   1.082   1_565  S
C378        C379   1.382       .  A
C378        C409   1.467   1_565  S
C379        H381   1.082       .  S
Cu382       N385   2.071       .  S
Cu383       N393   2.074       .  S
Cu384       N386   2.074       .  S
Cu384       N392   2.074       .  S
N385        N386   1.323       .  A
N385        C389   1.345       .  A
N386        C387   1.344       .  A
C387        C388   1.382       .  A
C387        H390   1.082       .  S
C388        C389   1.382       .  A
C389        H391   1.082   1_565  S
N392        N393   1.323       .  A
N392        C396   1.345       .  A
N393        C394   1.345       .  A
C394        C395   1.382       .  A
C394        H397   1.082       .  S
C395        C396   1.382       .  A
C395        C581   1.474       .  S
C396        H398   1.082       .  S
O399        C409   1.276   1_565  A
O399       Cu407   1.999   1_565  S
O400        C410   1.278       .  A
O400       Cu407   2.012       .  S
O401        C411   1.278       .  A
O401       Cu407   2.016       .  S
O402        C412   1.277   1_565  A
O402       Cu407   2.002   1_565  S
O403        C412   1.277       .  A
O403       Cu408   2.013       .  S
O404        C411   1.276       .  A
O404       Cu408   2.002       .  S
O405        C410   1.277       .  A
O405       Cu408   2.007       .  S
O406        C409   1.279       .  A
O406       Cu408   2.019       .  S
Cu407      Cu408   2.377       .  S
C412        C416   1.465   1_545  S
N413        N414   1.322       .  A
N413        C417   1.343       .  A
N413       Cu421   2.066       .  S
N414        C415   1.347   1_565  A
N414       Cu420   2.076       .  S
C415        C416   1.383   1_545  A
C415        H418   1.082       .  S
C416        C417   1.380       .  A
C417        H419   1.082       .  S
Cu420       N423   2.076       .  S
Cu421       N431   2.066       .  S
Cu422       N424   2.071       .  S
Cu422       N430   2.071       .  S
N423        N424   1.323       .  A
N423        C427   1.346       .  A
N424        C425   1.344       .  A
C425        C426   1.381       .  A
C425        H428   1.082       .  S
C426        C427   1.382       .  A
C427        H429   1.082   1_565  S
N430        N431   1.320       .  A
N430        C434   1.343       .  A
N431        C432   1.344       .  A
C432        C433   1.387       .  A
C432        H435   1.078       .  S
C433        C434   1.388       .  A
C433        C562   1.487       .  S
C434        H436   1.082       .  S
N437        N438   1.323       .  A
N437        C441   1.344       .  A
N437       Cu445   2.074       .  S
N438        C439   1.346       .  A
N438       Cu444   2.071       .  S
C439        C440   1.382       .  A
C439        H442   1.082       .  S
C440        C441   1.382       .  A
C440        C519   1.466       .  S
C441        H443   1.082       .  S
Cu444       N447   2.071       .  S
Cu445       N455   2.074       .  S
Cu446       N448   2.075       .  S
Cu446       N454   2.074       .  S
N447        N448   1.323       .  A
N447        C451   1.345       .  A
N448        C449   1.345       .  A
C449        C450   1.382       .  A
C449        H452   1.082       .  S
C450        C451   1.382       .  A
C450        C535   1.467       .  S
C451        H453   1.082       .  S
N454        N455   1.323       .  A
N454        C458   1.345       .  A
N455        C456   1.345       .  A
C456        C457   1.382       .  A
C456        H459   1.082       .  S
C457        C458   1.382       .  A
C457        C578   1.474       .  S
C458        H460   1.082       .  S
N461        N462   1.323       .  A
N461        C465   1.344       .  A
N461       Cu469   2.075       .  S
N462        C463   1.346       .  A
N462       Cu468   2.075       .  S
C463        C464   1.382       .  A
C463        H466   1.082       .  S
C464        C465   1.382       .  A
C464        C521   1.467       .  S
C465        H467   1.082       .  S
Cu468       N471   2.074       .  S
Cu469       N479   2.075       .  S
Cu470       N472   2.069       .  S
Cu470       N478   2.069       .  S
N471        N472   1.322       .  A
N471        C475   1.346       .  A
N472        C473   1.343       .  A
C473        C474   1.381       .  A
C473        H476   1.082       .  S
C474        C475   1.383       .  A
C474        C533   1.467       .  S
C475        H477   1.082       .  S
N478        N479   1.322       .  A
N478        C482   1.344       .  A
N479        C480   1.345       .  A
C480        C481   1.383       .  A
C480        H483   1.082       .  S
C481        C482   1.382       .  A
C481        C613   1.476       .  S
C482        H484   1.082       .  S
N485        N486   1.323       .  A
N485        C489   1.344       .  A
N485       Cu493   2.071       .  S
N486        C487   1.346       .  A
N486       Cu492   2.076       .  S
C487        C488   1.382       .  A
C487        H490   1.082       .  S
C488        C489   1.381       .  A
C488        C534   1.465       .  S
C489        H491   1.082       .  S
Cu492       N495   2.076       .  S
Cu493       N503   2.070       .  S
Cu494       N496   2.067       .  S
Cu494       N502   2.066       .  S
N495        N496   1.322       .  A
N495        C499   1.347       .  A
N496        C497   1.343       .  A
C497        C498   1.380       .  A
C497        H500   1.082       .  S
C498        C499   1.383       .  A
C498        C522   1.465       .  S
C499        H501   1.082       .  S
N502        N503   1.320       .  A
N502        C506   1.344       .  A
N503        C504   1.343       .  A
C504        C505   1.387       .  A
C504        H507   1.082       .  S
C505        C506   1.387       .  A
C505        C565   1.487       .  S
C506        H508   1.078       .  S
O509        C519   1.279       .  A
O509       Cu517   2.018       .  S
O510      Cu1141   2.006   1_454  S
O511       Cu517   2.002   1_554  S
O512        C522   1.277       .  A
O512      Cu1141   2.013   1_455  S
O513        C522   1.277       .  A
O513       Cu830   2.003   1_456  S
O514        C521   1.278       .  A
O514       Cu518   2.016       .  S
O515        C520   1.277       .  A
O515      Cu1142   2.012   1_455  S
O516        C519   1.276       .  A
Cu517      O1134   2.006   1_556  S
Cu517      O1136   2.013       .  S
Cu518       O825   2.003       .  S
Cu518      O1139   2.012       .  S
C520        C540   1.467       .  S
O523        C533   1.278       .  A
O523       Cu531   2.017       .  S
O524        C534   1.277       .  A
O524       Cu531   2.005       .  S
O525        C535   1.276       .  A
O525       Cu531   2.002       .  S
O526        C536   1.278       .  A
O526       Cu531   2.016       .  S
O527        C536   1.277       .  A
O527       Cu532   2.003       .  S
O528        C535   1.278       .  A
O528       Cu532   2.015       .  S
O529        C534   1.277       .  A
O529       Cu532   2.011       .  S
O530        C533   1.276       .  A
O530       Cu532   2.000       .  S
Cu531      Cu532   2.377       .  S
C536        C550   1.467       .  S
N537        N538   1.323       .  A
N537        C541   1.344       .  A
N537       Cu545   2.070       .  S
N538        C539   1.346       .  A
N538       Cu544   2.077       .  S
C539        C540   1.383       .  A
C539        H542   1.082       .  S
C540        C541   1.381       .  A
C541        H543   1.082       .  S
Cu544       N547   2.077       .  S
Cu545       N555   2.070       .  S
Cu546       N548   2.070       .  S
Cu546       N554   2.070       .  S
N547        N548   1.323       .  A
N547        C551   1.347       .  A
N548        C549   1.344       .  A
C549        C550   1.381       .  A
C549        H552   1.082       .  S
C550        C551   1.383       .  A
C551        H553   1.082       .  S
N554        N555   1.321       .  A
N554        C558   1.344       .  A
N555        C556   1.344       .  A
C556        C557   1.383       .  A
C556        H559   1.082       .  S
C557        C558   1.384       .  A
C557        C597   1.479       .  S
C558        H560   1.081       .  S
C561        C562   1.404       .  A
C561        C566   1.403       .  A
C561        H568   1.085       .  S
C562        C563   1.417       .  A
C563        C564   1.403       .  A
C563        C570   1.508       .  S
C564        C565   1.404       .  A
C564        H569   1.085       .  S
C565        C566   1.417       .  A
C566        C567   1.508       .  S
C567        H571   1.111       .  S
C567        H572   1.110       .  S
C567        H573   1.107       .  S
C570        H574   1.107       .  S
C570        H575   1.110       .  S
C570        H576   1.111       .  S
C577        C578   1.402       .  A
C577        C582   1.404       .  A
C577        H584   1.085       .  S
C578        C579   1.412       .  A
C579        C580   1.404       .  A
C579        C586   1.507       .  S
C580        C581   1.402       .  A
C580        H585   1.085       .  S
C581        C582   1.412       .  A
C582        C583   1.507       .  S
C583        H587   1.111       .  S
C583        H588   1.111       .  S
C583        H589   1.109       .  S
C586        H590   1.109       .  S
C586        H591   1.111       .  S
C586        H592   1.111       .  S
C593        C594   1.403       .  A
C593        C598   1.403       .  A
C593        H600   1.084       .  S
C594        C595   1.414       .  A
C595        C596   1.403       .  A
C595        C602   1.507       .  S
C596        C597   1.403       .  A
C596        H601   1.084       .  S
C597        C598   1.414       .  A
C598        C599   1.507       .  S
C599        H603   1.110       .  S
C599        H604   1.108       .  S
C599        H605   1.111       .  S
C602        H606   1.111       .  S
C602        H607   1.108       .  S
C602        H608   1.110       .  S
C609        C610   1.402       .  A
C609        C614   1.404       .  A
C609        H616   1.085       .  S
C610        C611   1.413       .  A
C611        C612   1.404       .  A
C611        C618   1.507       .  S
C612        C613   1.402       .  A
C612        H617   1.085       .  S
C613        C614   1.413       .  A
C614        C615   1.507       .  S
C615        H619   1.111       .  S
C615        H620   1.108       .  S
C615        H621   1.110       .  S
C618        H622   1.110       .  S
C618        H623   1.108       .  S
C618        H624   1.111       .  S
N625        N626   1.322       .  A
N625        C629   1.343       .  A
N625       Cu633   2.070       .  S
N626        C627   1.347       .  A
N626       Cu632   2.075       .  S
C627        C628   1.383       .  A
C627        H630   1.082       .  S
C628        C629   1.381       .  A
C628        C659   1.467       .  S
C629        H631   1.082       .  S
Cu632       N635   2.075       .  S
Cu633       N643   2.070       .  S
Cu634       N636   2.075       .  S
Cu634       N642   2.074       .  S
N635        N636   1.323       .  A
N635        C639   1.346       .  A
N636        C637   1.344       .  A
C637        C638   1.382       .  A
C637        H640   1.082       .  S
C638        C639   1.382       .  A
C638        C723   1.467       .  S
C639        H641   1.082       .  S
N642        N643   1.322       .  A
N642        C646   1.345       .  A
N643        C644   1.344       .  A
C644        C645   1.382       .  A
C644        H647   1.082       .  S
C645        C646   1.383       .  A
C645        C922   1.476       .  S
C646        H648   1.082       .  S
O649        C659   1.276       .  A
O649       Cu969   2.000   1_554  S
O650        C660   1.277       .  A
O651        C661   1.278       .  A
O651       Cu657   2.015       .  S
O652        C662   1.277       .  A
O653        C662   1.278       .  A
O654        C661   1.276   1_565  A
O654       Cu970   2.002   1_565  S
O655        C660   1.277   1_565  A
O656        C659   1.278       .  A
O656       Cu658   2.018       .  S
Cu657       O961   2.000       .  S
Cu657      Cu970   2.377       .  S
Cu658       O966   2.002   1_544  S
Cu658      Cu969   2.377   1_554  S
C660        C738   1.466   1_545  S
C661        C700   1.466   1_545  S
C662        C676   1.467       .  S
N663        N664   1.323       .  A
N663        C667   1.344       .  A
N663       Cu671   2.071       .  S
N664        C665   1.346       .  A
N664       Cu670   2.078       .  S
C665        C666   1.383       .  A
C665        H668   1.082       .  S
C666        C667   1.381       .  A
C666        C722   1.467       .  S
C667        H669   1.082       .  S
Cu670       N673   2.077       .  S
Cu671       N681   2.071       .  S
Cu672       N674   2.069       .  S
Cu672       N680   2.069       .  S
N673        N674   1.323       .  A
N673        C677   1.347       .  A
N674        C675   1.343       .  A
C675        C676   1.381       .  A
C675        H678   1.082       .  S
C676        C677   1.383       .  A
C677        H679   1.082       .  S
N680        N681   1.321       .  A
N680        C684   1.344       .  A
N681        C682   1.344       .  A
C682        C683   1.384       .  A
C682        H685   1.082       .  S
C683        C684   1.384       .  A
C683        C906   1.479       .  S
C684        H686   1.081       .  S
N687        N688   1.323       .  A
N687        C691   1.344       .  A
N687       Cu695   2.075       .  S
N688        C689   1.346       .  A
N688       Cu694   2.071       .  S
C689        C690   1.382       .  A
C689        H692   1.082   1_565  S
C690        C691   1.382       .  A
C690        C721   1.467   1_565  S
C691        H693   1.082       .  S
Cu694       N697   2.071       .  S
Cu695       N705   2.074       .  S
Cu696       N698   2.074       .  S
Cu696       N704   2.074       .  S
N697        N698   1.323       .  A
N697        C701   1.345       .  A
N698        C699   1.344       .  A
C699        C700   1.382       .  A
C699        H702   1.082       .  S
C700        C701   1.382       .  A
C701        H703   1.082   1_565  S
N704        N705   1.323       .  A
N704        C708   1.345       .  A
N705        C706   1.345       .  A
C706        C707   1.382       .  A
C706        H709   1.082       .  S
C707        C708   1.382       .  A
C707        C893   1.474       .  S
C708        H710   1.082       .  S
O711        C721   1.276   1_565  A
O711       Cu719   1.999   1_565  S
O712        C722   1.278       .  A
O712       Cu719   2.012       .  S
O713        C723   1.278       .  A
O713       Cu719   2.016       .  S
O714        C724   1.277   1_565  A
O714       Cu719   2.002   1_565  S
O715        C724   1.277       .  A
O715       Cu720   2.013       .  S
O716        C723   1.276       .  A
O716       Cu720   2.002       .  S
O717        C722   1.277       .  A
O717       Cu720   2.007       .  S
O718        C721   1.279       .  A
O718       Cu720   2.019       .  S
Cu719      Cu720   2.377       .  S
C724        C728   1.465   1_545  S
N725        N726   1.322       .  A
N725        C729   1.343       .  A
N725       Cu733   2.066       .  S
N726        C727   1.347   1_565  A
N726       Cu732   2.076       .  S
C727        C728   1.383   1_545  A
C727        H730   1.082       .  S
C728        C729   1.380       .  A
C729        H731   1.082       .  S
Cu732       N735   2.076       .  S
Cu733       N743   2.066       .  S
Cu734       N736   2.071       .  S
Cu734       N742   2.071       .  S
N735        N736   1.323       .  A
N735        C739   1.346       .  A
N736        C737   1.344       .  A
C737        C738   1.381       .  A
C737        H740   1.082       .  S
C738        C739   1.382       .  A
C739        H741   1.082   1_565  S
N742        N743   1.320       .  A
N742        C746   1.343       .  A
N743        C744   1.344       .  A
C744        C745   1.387       .  A
C744        H747   1.078       .  S
C745        C746   1.388       .  A
C745        C874   1.487       .  S
C746        H748   1.082       .  S
N749        N750   1.323       .  A
N749        C753   1.344       .  A
N749       Cu757   2.074       .  S
N750        C751   1.346       .  A
N750       Cu756   2.071       .  S
C751        C752   1.382       .  A
C751        H754   1.082       .  S
C752        C753   1.382       .  A
C752        C831   1.466       .  S
C753        H755   1.082       .  S
Cu756       N759   2.071       .  S
Cu757       N767   2.074       .  S
Cu758       N760   2.075       .  S
Cu758       N766   2.074       .  S
N759        N760   1.323       .  A
N759        C763   1.345       .  A
N760        C761   1.345       .  A
C761        C762   1.382       .  A
C761        H764   1.082       .  S
C762        C763   1.382       .  A
C762        C847   1.467       .  S
C763        H765   1.082       .  S
N766        N767   1.323       .  A
N766        C770   1.345       .  A
N767        C768   1.345       .  A
C768        C769   1.382       .  A
C768        H771   1.082       .  S
C769        C770   1.382       .  A
C769        C890   1.474       .  S
C770        H772   1.082       .  S
N773        N774   1.323       .  A
N773        C777   1.344       .  A
N773       Cu781   2.075       .  S
N774        C775   1.346       .  A
N774       Cu780   2.075       .  S
C775        C776   1.382       .  A
C775        H778   1.082       .  S
C776        C777   1.382       .  A
C776        C833   1.467       .  S
C777        H779   1.082       .  S
Cu780       N783   2.074       .  S
Cu781       N791   2.075       .  S
Cu782       N784   2.069       .  S
Cu782       N790   2.069       .  S
N783        N784   1.322       .  A
N783        C787   1.346       .  A
N784        C785   1.343       .  A
C785        C786   1.381       .  A
C785        H788   1.082       .  S
C786        C787   1.383       .  A
C786        C845   1.467       .  S
C787        H789   1.082       .  S
N790        N791   1.322       .  A
N790        C794   1.344       .  A
N791        C792   1.345       .  A
C792        C793   1.383       .  A
C792        H795   1.082       .  S
C793        C794   1.382       .  A
C793        C925   1.476       .  S
C794        H796   1.082       .  S
N797        N798   1.323       .  A
N797        C801   1.344       .  A
N797       Cu805   2.071       .  S
N798        C799   1.346       .  A
N798       Cu804   2.076       .  S
C799        C800   1.382       .  A
C799        H802   1.082       .  S
C800        C801   1.381       .  A
C800        C846   1.465       .  S
C801        H803   1.082       .  S
Cu804       N807   2.076       .  S
Cu805       N815   2.070       .  S
Cu806       N808   2.067       .  S
Cu806       N814   2.066       .  S
N807        N808   1.322       .  A
N807        C811   1.347       .  A
N808        C809   1.343       .  A
C809        C810   1.380       .  A
C809        H812   1.082       .  S
C810        C811   1.383       .  A
C810        C834   1.465       .  S
C811        H813   1.082       .  S
N814        N815   1.320       .  A
N814        C818   1.344       .  A
N815        C816   1.343       .  A
C816        C817   1.387       .  A
C816        H819   1.082       .  S
C817        C818   1.387       .  A
C817        C877   1.487       .  S
C818        H820   1.078       .  S
O821        C831   1.279       .  A
O821       Cu829   2.018       .  S
O822       C1144   1.277       .  A
O823       C1145   1.276       .  A
O823       Cu829   2.002       .  S
O824        C834   1.277       .  A
O825        C834   1.277       .  A
O826        C833   1.278       .  A
O826       Cu830   2.016       .  S
O827        C832   1.277       .  A
O828        C831   1.276       .  A
O828      Cu1142   1.998       .  S
Cu829     Cu1142   2.377       .  S
Cu830      O1140   1.998   1_554  S
Cu830     Cu1141   2.377   1_554  S
C832        C852   1.467       .  S
C832       O1134   1.277       .  A
C833       O1135   1.276       .  A
O835        C845   1.278       .  A
O835       Cu843   2.017       .  S
O836        C846   1.277       .  A
O836       Cu843   2.005       .  S
O837        C847   1.276       .  A
O837       Cu843   2.002       .  S
O838        C848   1.278       .  A
O838       Cu843   2.016       .  S
O839        C848   1.277       .  A
O839       Cu844   2.003       .  S
O840        C847   1.278       .  A
O840       Cu844   2.015       .  S
O841        C846   1.277       .  A
O841       Cu844   2.011       .  S
O842        C845   1.276       .  A
O842       Cu844   2.000       .  S
Cu843      Cu844   2.377       .  S
C848        C862   1.467       .  S
N849        N850   1.323       .  A
N849        C853   1.344       .  A
N849       Cu857   2.070       .  S
N850        C851   1.346       .  A
N850       Cu856   2.077       .  S
C851        C852   1.383       .  A
C851        H854   1.082       .  S
C852        C853   1.381       .  A
C853        H855   1.082       .  S
Cu856       N859   2.077       .  S
Cu857       N867   2.070       .  S
Cu858       N860   2.070       .  S
Cu858       N866   2.070       .  S
N859        N860   1.323       .  A
N859        C863   1.347       .  A
N860        C861   1.344       .  A
C861        C862   1.381       .  A
C861        H864   1.082       .  S
C862        C863   1.383       .  A
C863        H865   1.082       .  S
N866        N867   1.321       .  A
N866        C870   1.344       .  A
N867        C868   1.344       .  A
C868        C869   1.383       .  A
C868        H871   1.082       .  S
C869        C870   1.384       .  A
C869        C909   1.479       .  S
C870        H872   1.081       .  S
C873        C874   1.404       .  A
C873        C878   1.403       .  A
C873        H880   1.085       .  S
C874        C875   1.417       .  A
C875        C876   1.403       .  A
C875        C882   1.508       .  S
C876        C877   1.404       .  A
C876        H881   1.085       .  S
C877        C878   1.417       .  A
C878        C879   1.508       .  S
C879        H883   1.111       .  S
C879        H884   1.110       .  S
C879        H885   1.107       .  S
C882        H886   1.107       .  S
C882        H887   1.110       .  S
C882        H888   1.111       .  S
C889        C890   1.402       .  A
C889        C894   1.404       .  A
C889        H896   1.085       .  S
C890        C891   1.412       .  A
C891        C892   1.404       .  A
C891        C898   1.507       .  S
C892        C893   1.402       .  A
C892        H897   1.085       .  S
C893        C894   1.412       .  A
C894        C895   1.507       .  S
C895        H899   1.111       .  S
C895        H900   1.111       .  S
C895        H901   1.109       .  S
C898        H902   1.109       .  S
C898        H903   1.111       .  S
C898        H904   1.111       .  S
C905        C906   1.403       .  A
C905        C910   1.403       .  A
C905        H912   1.084       .  S
C906        C907   1.414       .  A
C907        C908   1.403       .  A
C907        C914   1.507       .  S
C908        C909   1.403       .  A
C908        H913   1.084       .  S
C909        C910   1.414       .  A
C910        C911   1.507       .  S
C911        H915   1.110       .  S
C911        H916   1.108       .  S
C911        H917   1.111       .  S
C914        H918   1.111       .  S
C914        H919   1.108       .  S
C914        H920   1.110       .  S
C921        C922   1.402       .  A
C921        C926   1.404       .  A
C921        H928   1.085       .  S
C922        C923   1.413       .  A
C923        C924   1.404       .  A
C923        C930   1.507       .  S
C924        C925   1.402       .  A
C924        H929   1.085       .  S
C925        C926   1.413       .  A
C926        C927   1.507       .  S
C927        H931   1.111       .  S
C927        H932   1.108       .  S
C927        H933   1.110       .  S
C930        H934   1.110       .  S
C930        H935   1.108       .  S
C930        H936   1.111       .  S
N937        N938   1.322       .  A
N937        C941   1.343       .  A
N937       Cu945   2.070       .  S
N938        C939   1.347       .  A
N938       Cu944   2.075       .  S
C939        C940   1.383       .  A
C939        H942   1.082       .  S
C940        C941   1.381       .  A
C940        C971   1.467       .  S
C941        H943   1.082       .  S
Cu944       N947   2.075       .  S
Cu945       N955   2.070       .  S
Cu946       N948   2.075       .  S
Cu946       N954   2.074       .  S
N947        N948   1.323       .  A
N947        C951   1.346       .  A
N948        C949   1.344       .  A
C949        C950   1.382       .  A
C949        H952   1.082       .  S
C950        C951   1.382       .  A
C950       C1035   1.467       .  S
C951        H953   1.082       .  S
N954        N955   1.322       .  A
N954        C958   1.345       .  A
N955        C956   1.344       .  A
C956        C957   1.382       .  A
C956        H959   1.082       .  S
C957        C958   1.383       .  A
C957       C1234   1.476       .  S
C958        H960   1.082       .  S
O961        C971   1.276       .  A
O962        C972   1.277       .  A
O963        C973   1.278       .  A
O963       Cu969   2.015       .  S
O964        C974   1.277       .  A
O965        C974   1.278       .  A
O966        C973   1.276   1_565  A
O967        C972   1.277   1_565  A
O968        C971   1.278       .  A
O968       Cu970   2.018       .  S
C972       C1050   1.466   1_545  S
C973       C1012   1.466   1_545  S
C974        C988   1.467       .  S
N975        N976   1.323       .  A
N975        C979   1.344       .  A
N975       Cu983   2.071       .  S
N976        C977   1.346       .  A
N976       Cu982   2.078       .  S
C977        C978   1.383       .  A
C977        H980   1.082       .  S
C978        C979   1.381       .  A
C978       C1034   1.467       .  S
C979        H981   1.082       .  S
Cu982       N985   2.077       .  S
Cu983       N993   2.071       .  S
Cu984       N986   2.069       .  S
Cu984       N992   2.069       .  S
N985        N986   1.323       .  A
N985        C989   1.347       .  A
N986        C987   1.343       .  A
C987        C988   1.381       .  A
C987        H990   1.082       .  S
C988        C989   1.383       .  A
C989        H991   1.082       .  S
N992        N993   1.321       .  A
N992        C996   1.344       .  A
N993        C994   1.344       .  A
C994        C995   1.384       .  A
C994        H997   1.082       .  S
C995        C996   1.384       .  A
C995       C1218   1.479       .  S
C996        H998   1.081       .  S
N999       N1000   1.323       .  A
N999       C1003   1.344       .  A
N999      Cu1007   2.075       .  S
N1000      C1001   1.346       .  A
N1000     Cu1006   2.071       .  S
C1001      C1002   1.382       .  A
C1001      H1004   1.082   1_565  S
C1002      C1003   1.382       .  A
C1002      C1033   1.467   1_565  S
C1003      H1005   1.082       .  S
Cu1006     N1009   2.071       .  S
Cu1007     N1017   2.074       .  S
Cu1008     N1010   2.074       .  S
Cu1008     N1016   2.074       .  S
N1009      N1010   1.323       .  A
N1009      C1013   1.345       .  A
N1010      C1011   1.344       .  A
C1011      C1012   1.382       .  A
C1011      H1014   1.082       .  S
C1012      C1013   1.382       .  A
C1013      H1015   1.082   1_565  S
N1016      N1017   1.323       .  A
N1016      C1020   1.345       .  A
N1017      C1018   1.345       .  A
C1018      C1019   1.382       .  A
C1018      H1021   1.082       .  S
C1019      C1020   1.382       .  A
C1019      C1205   1.474       .  S
C1020      H1022   1.082       .  S
O1023      C1033   1.276   1_565  A
O1023     Cu1031   1.999   1_565  S
O1024      C1034   1.278       .  A
O1024     Cu1031   2.012       .  S
O1025      C1035   1.278       .  A
O1025     Cu1031   2.016       .  S
O1026      C1036   1.277   1_565  A
O1026     Cu1031   2.002   1_565  S
O1027      C1036   1.277       .  A
O1027     Cu1032   2.013       .  S
O1028      C1035   1.276       .  A
O1028     Cu1032   2.002       .  S
O1029      C1034   1.277       .  A
O1029     Cu1032   2.007       .  S
O1030      C1033   1.279       .  A
O1030     Cu1032   2.019       .  S
Cu1031    Cu1032   2.377       .  S
C1036      C1040   1.465   1_545  S
N1037      N1038   1.322       .  A
N1037      C1041   1.343       .  A
N1037     Cu1045   2.066       .  S
N1038      C1039   1.347   1_565  A
N1038     Cu1044   2.076       .  S
C1039      C1040   1.383   1_545  A
C1039      H1042   1.082       .  S
C1040      C1041   1.380       .  A
C1041      H1043   1.082       .  S
Cu1044     N1047   2.076       .  S
Cu1045     N1055   2.066       .  S
Cu1046     N1048   2.071       .  S
Cu1046     N1054   2.071       .  S
N1047      N1048   1.323       .  A
N1047      C1051   1.346       .  A
N1048      C1049   1.344       .  A
C1049      C1050   1.381       .  A
C1049      H1052   1.082       .  S
C1050      C1051   1.382       .  A
C1051      H1053   1.082   1_565  S
N1054      N1055   1.320       .  A
N1054      C1058   1.343       .  A
N1055      C1056   1.344       .  A
C1056      C1057   1.387       .  A
C1056      H1059   1.078       .  S
C1057      C1058   1.388       .  A
C1057      C1186   1.487       .  S
C1058      H1060   1.082       .  S
N1061      N1062   1.323       .  A
N1061      C1065   1.344       .  A
N1061     Cu1069   2.074       .  S
N1062      C1063   1.346       .  A
N1062     Cu1068   2.071       .  S
C1063      C1064   1.382       .  A
C1063      H1066   1.082       .  S
C1064      C1065   1.382       .  A
C1064      C1143   1.466       .  S
C1065      H1067   1.082       .  S
Cu1068     N1071   2.071       .  S
Cu1069     N1079   2.074       .  S
Cu1070     N1072   2.075       .  S
Cu1070     N1078   2.074       .  S
N1071      N1072   1.323       .  A
N1071      C1075   1.345       .  A
N1072      C1073   1.345       .  A
C1073      C1074   1.382       .  A
C1073      H1076   1.082       .  S
C1074      C1075   1.382       .  A
C1074      C1159   1.467       .  S
C1075      H1077   1.082       .  S
N1078      N1079   1.323       .  A
N1078      C1082   1.345       .  A
N1079      C1080   1.345       .  A
C1080      C1081   1.382       .  A
C1080      H1083   1.082       .  S
C1081      C1082   1.382       .  A
C1081      C1202   1.474       .  S
C1082      H1084   1.082       .  S
N1085      N1086   1.323       .  A
N1085      C1089   1.344       .  A
N1085     Cu1093   2.075       .  S
N1086      C1087   1.346       .  A
N1086     Cu1092   2.075       .  S
C1087      C1088   1.382       .  A
C1087      H1090   1.082       .  S
C1088      C1089   1.382       .  A
C1088      C1145   1.467       .  S
C1089      H1091   1.082       .  S
Cu1092     N1095   2.074       .  S
Cu1093     N1103   2.075       .  S
Cu1094     N1096   2.069       .  S
Cu1094     N1102   2.069       .  S
N1095      N1096   1.322       .  A
N1095      C1099   1.346       .  A
N1096      C1097   1.343       .  A
C1097      C1098   1.381       .  A
C1097      H1100   1.082       .  S
C1098      C1099   1.383       .  A
C1098      C1157   1.467       .  S
C1099      H1101   1.082       .  S
N1102      N1103   1.322       .  A
N1102      C1106   1.344       .  A
N1103      C1104   1.345       .  A
C1104      C1105   1.383       .  A
C1104      H1107   1.082       .  S
C1105      C1106   1.382       .  A
C1105      C1237   1.476       .  S
C1106      H1108   1.082       .  S
N1109      N1110   1.323       .  A
N1109      C1113   1.344       .  A
N1109     Cu1117   2.071       .  S
N1110      C1111   1.346       .  A
N1110     Cu1116   2.076       .  S
C1111      C1112   1.382       .  A
C1111      H1114   1.082       .  S
C1112      C1113   1.381       .  A
C1112      C1158   1.465       .  S
C1113      H1115   1.082       .  S
Cu1116     N1119   2.076       .  S
Cu1117     N1127   2.070       .  S
Cu1118     N1120   2.067       .  S
Cu1118     N1126   2.066       .  S
N1119      N1120   1.322       .  A
N1119      C1123   1.347       .  A
N1120      C1121   1.343       .  A
C1121      C1122   1.380       .  A
C1121      H1124   1.082       .  S
C1122      C1123   1.383       .  A
C1122      C1146   1.465       .  S
C1123      H1125   1.082       .  S
N1126      N1127   1.320       .  A
N1126      C1130   1.344       .  A
N1127      C1128   1.343       .  A
C1128      C1129   1.387       .  A
C1128      H1131   1.082       .  S
C1129      C1130   1.387       .  A
C1129      C1189   1.487       .  S
C1130      H1132   1.078       .  S
O1133      C1143   1.279       .  A
O1133     Cu1141   2.018       .  S
O1135     Cu1141   2.002   1_554  S
O1136      C1146   1.277       .  A
O1137      C1146   1.277       .  A
O1138      C1145   1.278       .  A
O1138     Cu1142   2.016       .  S
O1139      C1144   1.277       .  A
O1140      C1143   1.276       .  A
C1144      C1164   1.467       .  S
O1147      C1157   1.278       .  A
O1147     Cu1155   2.017       .  S
O1148      C1158   1.277       .  A
O1148     Cu1155   2.005       .  S
O1149      C1159   1.276       .  A
O1149     Cu1155   2.002       .  S
O1150      C1160   1.278       .  A
O1150     Cu1155   2.016       .  S
O1151      C1160   1.277       .  A
O1151     Cu1156   2.003       .  S
O1152      C1159   1.278       .  A
O1152     Cu1156   2.015       .  S
O1153      C1158   1.277       .  A
O1153     Cu1156   2.011       .  S
O1154      C1157   1.276       .  A
O1154     Cu1156   2.000       .  S
Cu1155    Cu1156   2.377       .  S
C1160      C1174   1.467       .  S
N1161      N1162   1.323       .  A
N1161      C1165   1.344       .  A
N1161     Cu1169   2.070       .  S
N1162      C1163   1.346       .  A
N1162     Cu1168   2.077       .  S
C1163      C1164   1.383       .  A
C1163      H1166   1.082       .  S
C1164      C1165   1.381       .  A
C1165      H1167   1.082       .  S
Cu1168     N1171   2.077       .  S
Cu1169     N1179   2.070       .  S
Cu1170     N1172   2.070       .  S
Cu1170     N1178   2.070       .  S
N1171      N1172   1.323       .  A
N1171      C1175   1.347       .  A
N1172      C1173   1.344       .  A
C1173      C1174   1.381       .  A
C1173      H1176   1.082       .  S
C1174      C1175   1.383       .  A
C1175      H1177   1.082       .  S
N1178      N1179   1.321       .  A
N1178      C1182   1.344       .  A
N1179      C1180   1.344       .  A
C1180      C1181   1.383       .  A
C1180      H1183   1.082       .  S
C1181      C1182   1.384       .  A
C1181      C1221   1.479       .  S
C1182      H1184   1.081       .  S
C1185      C1186   1.404       .  A
C1185      C1190   1.403       .  A
C1185      H1192   1.085       .  S
C1186      C1187   1.417       .  A
C1187      C1188   1.403       .  A
C1187      C1194   1.508       .  S
C1188      C1189   1.404       .  A
C1188      H1193   1.085       .  S
C1189      C1190   1.417       .  A
C1190      C1191   1.508       .  S
C1191      H1195   1.111       .  S
C1191      H1196   1.110       .  S
C1191      H1197   1.107       .  S
C1194      H1198   1.107       .  S
C1194      H1199   1.110       .  S
C1194      H1200   1.111       .  S
C1201      C1202   1.402       .  A
C1201      C1206   1.404       .  A
C1201      H1208   1.085       .  S
C1202      C1203   1.412       .  A
C1203      C1204   1.404       .  A
C1203      C1210   1.507       .  S
C1204      C1205   1.402       .  A
C1204      H1209   1.085       .  S
C1205      C1206   1.412       .  A
C1206      C1207   1.507       .  S
C1207      H1211   1.111       .  S
C1207      H1212   1.111       .  S
C1207      H1213   1.109       .  S
C1210      H1214   1.109       .  S
C1210      H1215   1.111       .  S
C1210      H1216   1.111       .  S
C1217      C1218   1.403       .  A
C1217      C1222   1.403       .  A
C1217      H1224   1.084       .  S
C1218      C1219   1.414       .  A
C1219      C1220   1.403       .  A
C1219      C1226   1.507       .  S
C1220      C1221   1.403       .  A
C1220      H1225   1.084       .  S
C1221      C1222   1.414       .  A
C1222      C1223   1.507       .  S
C1223      H1227   1.110       .  S
C1223      H1228   1.108       .  S
C1223      H1229   1.111       .  S
C1226      H1230   1.111       .  S
C1226      H1231   1.108       .  S
C1226      H1232   1.110       .  S
C1233      C1234   1.402       .  A
C1233      C1238   1.404       .  A
C1233      H1240   1.085       .  S
C1234      C1235   1.413       .  A
C1235      C1236   1.404       .  A
C1235      C1242   1.507       .  S
C1236      C1237   1.402       .  A
C1236      H1241   1.085       .  S
C1237      C1238   1.413       .  A
C1238      C1239   1.507       .  S
C1239      H1243   1.111       .  S
C1239      H1244   1.108       .  S
C1239      H1245   1.110       .  S
C1242      H1246   1.110       .  S
C1242      H1247   1.108       .  S
C1242      H1248   1.111       .  S
