geometry optimzed in LAMMPS
_audit_creation_date              2020-11-30 
_audit_creation_method            'lammps2cif' 
_symmetry_space_group_name_H-M    'P1' 
_symmetry_Int_Tables_number       1 
_symmetry_cell_setting            triclinic 
loop_ 
_symmetry_equiv_pos_as_xyz 
  x,y,z 
_cell_length_a                    36.12669613 
_cell_length_b                    35.90437559247678 
_cell_length_c                    36.01611084232574 
_cell_angle_alpha                 89.91690811308126 
_cell_angle_beta                  90.02723949781674 
_cell_angle_gamma                 89.98086415311246 
loop_ 
_atom_site_label 
_atom_site_type_symbol 
_atom_site_fract_x 
_atom_site_fract_y 
_atom_site_fract_z 
_atom_site_charge 
Zr1        Zr  0.49029938  0.06904343  0.17265464     2.17500
O2          O  0.50102799  0.00192298  0.17255814    -0.51800
O3          O  0.52792572  0.08075728  0.11790704    -0.75000
O4          O  0.45639300  0.03772925  0.12480910    -0.81800
O5          O  0.55504302  0.07632859  0.25366242    -0.83500
O6          O  0.40360488  0.06895971  0.11046184    -0.79100
O7          O  0.54479911  0.04173002  0.20177456    -0.90800
O8          O  0.52668205  0.14245782  0.10487990    -0.76700
O9          O  0.46829542  0.12069925  0.13750770    -0.86200
O10         O  0.52464312  0.12110256  0.19413373    -0.85900
O11         O  0.42474186  0.07204545  0.18466264    -0.72700
O12         O  0.47612226  0.07189066  0.23766680    -0.84800
Zr13       Zr  0.42319942  0.18115940  0.23803865     2.26400
Zr14       Zr  0.40342212  0.12529706  0.14989693     2.06300
Zr15       Zr  0.50933642  0.12523288  0.25857679     2.10000
Zr16       Zr  0.50193582  0.17284382  0.15984634     1.78800
O17         O  0.51822499  0.09580592  0.31888405    -0.93600
O18         O  0.48144500  0.21293591  0.10917917    -0.41400
O19         O  0.48818078  0.17824208  0.22486145    -0.78000
O20         O  0.43735379  0.17846110  0.17263533    -0.96700
O21         O  0.38943980  0.12935976  0.21467645    -0.90000
O22         O  0.44465838  0.12879147  0.27221962    -0.92900
C23         C  0.53444468  0.10861671  0.09648347     1.00900
C24         C  0.56304229  0.04979697  0.23126882     1.13800
C25         C  0.42595362  0.04108934  0.10698571     1.04600
O26         O  0.40320364  0.14795398  0.08612844    -0.95000
O27         O  0.36375149  0.18122205  0.14967533    -0.90800
O28         O  0.37618115  0.21309129  0.20284842    -0.83900
C29         C  0.35904437  0.20894106  0.17197886     1.11200
O30         O  0.42489646  0.01142672  0.25934918    -0.97000
Zr31       Zr  0.41081569  0.07710740  0.24907843     1.88900
O32         O  0.36675005  0.16889219  0.27354334    -0.73600
O33         O  0.33925883  0.10463417  0.14700186    -0.52900
O34         O  0.36018309  0.03848654  0.22637933    -0.97600
O35         O  0.40842818  0.06353773  0.31551217    -0.54800
O36         O  0.35581384  0.10672104  0.27393518    -0.74200
C37         C  0.34639112  0.14039240  0.28103774     0.98200
O38         O  0.42600108  0.24806730  0.24919425    -0.63000
O39         O  0.56688347  0.16026600  0.26353598    -0.57800
O40         O  0.45082889  0.20674647  0.29453038    -0.94500
O41         O  0.50214427  0.17180124  0.30612717    -0.92900
O42         O  0.56807336  0.18537334  0.16429595    -0.93300
O43         O  0.51640327  0.23841927  0.16936052    -0.92000
C44         C  0.47954131  0.19817278  0.31385151     1.17000
H45         H  0.55086789  0.11767955  0.19013884     0.33000
H46         H  0.42973699  0.20103391  0.16027160     0.43800
H47         H  0.44034427  0.13193681  0.29848074     0.37300
H48         H  0.41253682  0.04949943  0.17677221     0.33800
H49         H  0.50448134  0.22040072  0.09627090     0.25600
H50         H  0.33015592  0.11370530  0.12267787     0.31500
H51         H  0.34585305  0.05508208  0.20977247     0.37500
H52         H  0.57653236  0.18786515  0.13826296     0.31900
H53         H  0.58037145  0.14850139  0.28441438     0.30800
H54         H  0.54197982  0.10593783  0.32815823     0.32500
H55         H  0.38574677  0.04839225  0.31876366     0.31400
H56         H  0.50268433  0.24546536  0.19208259     0.35400
H57         H  0.42908795  0.25952363  0.22436030     0.28200
H58         H  0.50877345  0.99552835  0.14697531     0.32400
H59         H  0.40324654  0.00091614  0.27254375     0.35300
H60         H  0.58131162  0.15341603  0.24121129     0.27900
H61         H  0.40082594  0.25532057  0.25727366     0.40700
H62         H  0.37668489  0.15068479  0.07971449     0.30800
H63         H  0.46895686  0.19589639  0.09159147     0.38400
H64         H  0.40243700  0.08743964  0.32778638     0.30300
H65         H  0.34045399  0.07724565  0.14422115     0.30300
H66         H  0.47629462  0.99042051  0.17562423     0.30600
Zr67       Zr  0.06911454  0.17350889  0.48692320     2.17500
O68         O  0.00200923  0.17862954  0.49252133    -0.51800
O69         O  0.07729775  0.11655679  0.52286888    -0.75000
O70         O  0.03768078  0.12648631  0.45150263    -0.81800
O71         O  0.08344429  0.24845547  0.55771963    -0.83500
O72         O  0.06721472  0.11531839  0.39687008    -0.79100
O73         O  0.04547569  0.19959863  0.54522027    -0.90800
O74         O  0.13830943  0.10206432  0.52136227    -0.76700
O75         O  0.11887254  0.13751159  0.46237229    -0.86200
O76         O  0.12222944  0.19090206  0.52177385    -0.85900
O77         O  0.07316767  0.18946164  0.42192373    -0.72700
O78         O  0.07497499  0.23919575  0.47584663    -0.84800
Zr79       Zr  0.18476470  0.23736559  0.42299232     2.26400
Zr80       Zr  0.12420533  0.15349546  0.39806669     2.06300
Zr81       Zr  0.12913811  0.25598077  0.50960983     2.10000
Zr82       Zr  0.17171643  0.15530544  0.49724946     1.78800
O83         O  0.09868401  0.31643608  0.51094682    -0.93600
O84         O  0.20736697  0.10162713  0.47638373    -0.41400
O85         O  0.18052754  0.22070754  0.48734895    -0.78000
O86         O  0.17821121  0.17122828  0.43334194    -0.96700
O87         O  0.13208509  0.21875063  0.38790237    -0.90000
O88         O  0.13473795  0.27361734  0.44593153    -0.92900
C89         C  0.10456023  0.09442775  0.52924057     1.00900
C90         C  0.05628538  0.22694860  0.56560403     1.13800
C91         C  0.04027440  0.11034523  0.41994040     1.04600
O92         O  0.14269564  0.08882636  0.38980340    -0.95000
O93         O  0.18011797  0.15197001  0.35872731    -0.90800
O94         O  0.21420930  0.20314576  0.37369326    -0.83900
C95         C  0.20862876  0.17334759  0.35501084     1.11200
O96         O  0.01684350  0.26998878  0.41847941    -0.97000
Zr97       Zr  0.08212416  0.25460282  0.41126079     1.88900
O98         O  0.17485154  0.27580336  0.36810890    -0.73600
O99         O  0.10248578  0.16011964  0.33433948    -0.52900
O100        O  0.04217131  0.24109568  0.35851148    -0.97600
O101        O  0.07658328  0.32191332  0.41831825    -0.54800
O102        O  0.11329034  0.27914045  0.35690327    -0.74200
C103        C  0.14706784  0.28471013  0.34758392     0.98200
O104        O  0.25188108  0.24476580  0.42400244    -0.63000
O105        O  0.15757339  0.26866668  0.56969140    -0.57800
O106        O  0.21344222  0.29067869  0.45443512    -0.94500
O107        O  0.18289923  0.29521245  0.50935600    -0.92900
O108        O  0.18508770  0.15809480  0.56348057    -0.93300
O109        O  0.23785564  0.15882340  0.50974830    -0.92000
C110        C  0.20874963  0.30470752  0.48697228     1.17000
H111        H  0.11913188  0.18565511  0.54792190     0.33000
H112        H  0.19994095  0.15793062  0.42514444     0.43800
H113        H  0.13960066  0.29991225  0.44317265     0.37300
H114        H  0.05046001  0.18304564  0.40933540     0.33800
H115        H  0.21020008  0.08581759  0.49876752     0.25600
H116        H  0.11086362  0.13710855  0.32175588     0.31500
H117        H  0.05863801  0.22923361  0.34001486     0.37500
H118        H  0.18733040  0.13174744  0.57133297     0.31900
H119        H  0.14042142  0.28583112  0.58260493     0.30800
H120        H  0.10785101  0.32836611  0.53394427     0.32500
H121        H  0.06209771  0.32550984  0.44136616     0.31400
H122        H  0.24875493  0.16845364  0.48641159     0.35400
H123        H  0.26197993  0.21920748  0.42613464     0.28200
H124        H  0.99320014  0.15355544  0.49982925     0.32400
H125        H  0.00830026  0.25429851  0.43940888     0.35300
H126        H  0.15582622  0.24491889  0.58356908     0.27900
H127        H  0.25881955  0.25322316  0.39875817     0.40700
H128        H  0.13582805  0.07642887  0.41338373     0.30800
H129        H  0.19017251  0.08757235  0.46023454     0.38400
H130        H  0.05976336  0.32983788  0.39808134     0.30300
H131        H  0.07524411  0.15759894  0.33579229     0.30300
H132        H  0.99287549  0.18224542  0.46682512     0.30600
Zr133      Zr  0.24301424  0.42471745  0.17865830     2.17500
O134        O  0.25742364  0.42634855  0.24483895    -0.51800
O135        O  0.28004511  0.36909653  0.16632244    -0.75000
O136        O  0.21087132  0.37676012  0.21232347    -0.81800
O137        O  0.29689602  0.51384637  0.17522066    -0.83500
O138        O  0.16020310  0.35866548  0.17951514    -0.79100
O139        O  0.29584898  0.45795770  0.20481493    -0.90800
O140        O  0.28199291  0.35869871  0.10430485    -0.76700
O141        O  0.22311108  0.38903808  0.12689837    -0.86200
O142        O  0.27615977  0.44841988  0.12683414    -0.85900
O143        O  0.17688260  0.43415061  0.17572387    -0.72700
O144        O  0.22502942  0.48893770  0.17488067    -0.84800
Zr145      Zr  0.17271819  0.48658168  0.06535270     2.26400
Zr146      Zr  0.15774526  0.39783895  0.12288147     2.06300
Zr147      Zr  0.25707484  0.51189520  0.12179652     2.10000
Zr148      Zr  0.25563121  0.41338829  0.07489996     1.78800
O149        O  0.26405241  0.57484779  0.14590342    -0.93600
O150        O  0.24015663  0.36241599  0.03307561    -0.41400
O151        O  0.23839204  0.47761052  0.06839868    -0.78000
O152        O  0.19016081  0.42197548  0.06946466    -0.96700
O153        O  0.14025545  0.46190686  0.11745657    -0.90000
O154        O  0.19196836  0.52207127  0.11738901    -0.92900
C155        C  0.28827843  0.34890940  0.13796149     1.00900
C156        C  0.30802316  0.49130319  0.20044861     1.13800
C157        C  0.18187603  0.35676485  0.20803615     1.04600
O158        O  0.16224603  0.33476774  0.09850737    -0.95000
O159        O  0.11674259  0.39574791  0.06837730    -0.90800
O160        O  0.12342169  0.45081607  0.03754727    -0.83900
C161        C  0.10886192  0.41852960  0.04178954     1.11200
O162        O  0.16938335  0.50863884  0.23536133    -0.97000
Zr163      Zr  0.15956066  0.49792634  0.16924039     1.88900
O164        O  0.11750288  0.52330578  0.07692581    -0.73600
O165        O  0.09432259  0.38860938  0.14383669    -0.52900
O166        O  0.10658974  0.47467852  0.20415852    -0.97600
O167        O  0.16220000  0.56420198  0.18411007    -0.54800
O168        O  0.10572806  0.52427730  0.13867797    -0.74200
C169        C  0.09707406  0.53158732  0.10490892     0.98200
O170        O  0.17399750  0.48974341  0.99756604    -0.63000
O171        O  0.31760080  0.51401885  0.09212202    -0.57800
O172        O  0.19657351  0.54565500  0.04067433    -0.94500
O173        O  0.24748489  0.55914503  0.07540195    -0.92900
O174        O  0.32194716  0.42240413  0.06640031    -0.93300
O175        O  0.27166381  0.42521693  0.01025869    -0.92000
C176        C  0.22433539  0.56633061  0.04945685     1.17000
H177        H  0.30254538  0.44624315  0.13058936     0.33000
H178        H  0.18263392  0.40904814  0.04725634     0.43800
H179        H  0.18621795  0.54816662  0.11405449     0.37300
H180        H  0.16478254  0.42599095  0.19819551     0.33800
H181        H  0.26423285  0.35081631  0.02683469     0.25600
H182        H  0.09206313  0.36141147  0.14785445     0.31500
H183        H  0.09135296  0.49699897  0.20936003     0.37500
H184        H  0.33109145  0.39822366  0.05691894     0.31900
H185        H  0.31264185  0.50828425  0.06570814     0.30800
H186        H  0.28722100  0.58433147  0.13466053     0.32500
H187        H  0.15069122  0.57726995  0.16280775     0.31400
H188        H  0.25276390  0.44312847  0.00141492     0.35400
H189        H  0.20004761  0.49538814  0.99114133     0.28200
H190        H  0.26741875  0.40141423  0.25092842     0.32400
H191        H  0.14749346  0.52278356  0.24398807     0.35300
H192        H  0.32452078  0.54069860  0.09221336     0.27900
H193        H  0.17066284  0.46381774  0.98885394     0.40700
H194        H  0.18778285  0.32665119  0.10435748     0.30800
H195        H  0.22765547  0.34378861  0.04900206     0.38400
H196        H  0.18879448  0.57069182  0.18259213     0.30300
H197        H  0.09365216  0.39947011  0.16907781     0.30300
H198        H  0.23325467  0.42771558  0.25774367     0.30600
Zr199      Zr  0.92436119  0.31850918  0.75775290     2.17500
O200        O  0.92036371  0.25373526  0.73763522    -0.51800
O201        O  0.86831621  0.33259304  0.72223285    -0.75000
O202        O  0.87921806  0.28358497  0.79210372    -0.81800
O203        O  0.01178910  0.32268794  0.70115957    -0.83500
O204        O  0.86245680  0.31376201  0.84472445    -0.79100
O205        O  0.95730647  0.29146918  0.70488707    -0.90800
O206        O  0.85732912  0.39466297  0.72228530    -0.76700
O207        O  0.88949524  0.36940899  0.78136458    -0.86200
O208        O  0.94654694  0.37149508  0.72517889    -0.85900
O209        O  0.93654722  0.31877104  0.82382170    -0.72700
O210        O  0.98893607  0.32132899  0.77348911    -0.84800
Zr211      Zr  0.98930864  0.42862292  0.82952850     2.26400
Zr212      Zr  0.90132692  0.37095202  0.84677166     2.06300
Zr213      Zr  0.01047115  0.37569076  0.74206586     2.10000
Zr214      Zr  0.91232261  0.42259734  0.74934001     1.78800
O215        O  0.07102236  0.35159833  0.72489104    -0.93600
O216        O  0.86070548  0.46204824  0.76809987    -0.41400
O217        O  0.97703834  0.42842491  0.76404527    -0.78000
O218        O  0.92413689  0.42535724  0.81455331    -0.96700
O219        O  0.96577683  0.37555468  0.86151976    -0.90000
O220        O  0.02360158  0.37703009  0.80709060    -0.92900
C221        C  0.84782088  0.36102588  0.71505760     1.00900
C222        C  0.98977001  0.29657247  0.69120126     1.13800
C223        C  0.86048594  0.28580746  0.82214922     1.04600
O224        O  0.83734505  0.39219451  0.84834920    -0.95000
O225        O  0.90083131  0.42611260  0.88794860    -0.90800
O226        O  0.95438163  0.45805781  0.87801163    -0.83900
C227        C  0.92316247  0.45355813  0.89420274     1.11200
O228        O  0.00851961  0.25791371  0.82683476    -0.97000
Zr229      Zr  0.00052927  0.32423411  0.83910212     1.88900
O230        O  0.02285328  0.41524739  0.88676874    -0.73600
O231        O  0.89870612  0.34792987  0.91035582    -0.52900
O232        O  0.97893197  0.28818094  0.89227334    -0.97600
O233        O  0.06641712  0.30909669  0.83609989    -0.54800
O234        O  0.02783849  0.35268912  0.89380788    -0.74200
C235        C  0.03251736  0.38615769  0.90527810     0.98200
O236        O  0.99815140  0.49597003  0.82964093    -0.63000
O237        O  0.00775011  0.41190945  0.68491856    -0.57800
O238        O  0.04817785  0.45303429  0.80524543    -0.94500
O239        O  0.06039068  0.41902590  0.75342264    -0.92900
O240        O  0.91745488  0.43507139  0.68303083    -0.93300
O241        O  0.92420459  0.48873827  0.73999254    -0.92000
C242        C  0.06852711  0.44429653  0.77719142     1.17000
H243        H  0.94326408  0.36867667  0.69870619     0.33000
H244        H  0.91155346  0.44754401  0.82284461     0.43800
H245        H  0.04970633  0.37984545  0.81201098     0.37300
H246        H  0.92921252  0.29578065  0.83558450     0.33800
H247        H  0.84640463  0.46640678  0.74503082     0.25600
H248        H  0.87216064  0.34908606  0.91709779     0.31500
H249        H  0.97383523  0.30679807  0.91187231     0.37500
H250        H  0.89651003  0.45196245  0.67739997     0.31900
H251        H  0.01438533  0.43756359  0.69246647     0.30800
H252        H  0.07854350  0.33607761  0.74636582     0.32500
H253        H  0.07079511  0.29218266  0.85739461     0.31400
H254        H  0.92985682  0.49840313  0.76510490     0.35400
H255        H  0.97296889  0.50680311  0.82838340     0.28200
H256        H  0.89437604  0.24998030  0.72974286     0.32400
H257        H  0.02103485  0.24749379  0.84899668     0.35300
H258        H  0.02924778  0.40318900  0.67027262     0.27900
H259        H  0.00727508  0.50210873  0.85483936     0.40700
H260        H  0.82795353  0.38393093  0.87283385     0.30800
H261        H  0.84471920  0.44558440  0.78325366     0.38400
H262        H  0.07966066  0.33217431  0.84308034     0.30300
H263        H  0.90412292  0.32098104  0.90838660     0.30300
H264        H  0.92336894  0.23840037  0.76032663     0.30600
Zr265      Zr  0.76096497  0.92492352  0.31862736     2.17500
O266        O  0.75109886  0.92872042  0.25168285    -0.51800
O267        O  0.72592544  0.86792539  0.32887993    -0.75000
O268        O  0.79603539  0.87914586  0.28505422    -0.81800
O269        O  0.69550680  0.00590902  0.32686731    -0.83500
O270        O  0.85106475  0.86910709  0.31396252    -0.79100
O271        O  0.70426807  0.95251609  0.29405332    -0.90800
O272        O  0.72906053  0.85295666  0.38991021    -0.76700
O273        O  0.78708237  0.88948249  0.36801090    -0.86200
O274        O  0.72634070  0.94125896  0.37215640    -0.85900
O275        O  0.82538798  0.94250827  0.32059981    -0.72700
O276        O  0.77007350  0.99066924  0.32512588    -0.84800
Zr277      Zr  0.82552595  0.99136047  0.43215323     2.26400
Zr278      Zr  0.85074853  0.90707335  0.37142771     2.06300
Zr279      Zr  0.73643711  0.00653257  0.37966804     2.10000
Zr280      Zr  0.75318065  0.90702647  0.42174380     1.78800
O281        O  0.72459032  0.06970377  0.35808054    -0.93600
O282        O  0.77536745  0.85327771  0.45665222    -0.41400
O283        O  0.76183830  0.97263908  0.43056877    -0.78000
O284        O  0.81658444  0.92488980  0.42621874    -0.96700
O285        O  0.85943384  0.97276844  0.37862623    -0.90000
O286        O  0.79965861  0.02611489  0.38242134    -0.92900
C287        C  0.72046453  0.84554660  0.35621627     1.00900
C288        C  0.68760265  0.98347018  0.30040494     1.13800
C289        C  0.82787173  0.86363287  0.28716797     1.04600
O290        O  0.85661579  0.84272911  0.39196266    -0.95000
O291        O  0.89203161  0.90721809  0.42607835    -0.90800
O292        O  0.87557127  0.95748033  0.46079428    -0.83900
C293        C  0.89515158  0.92828082  0.45495246     1.11200
O294        O  0.81513517  0.02249032  0.26558069    -0.97000
Zr295      Zr  0.83402556  0.00803721  0.32904031     1.88900
O296        O  0.87899716  0.03115070  0.42006053    -0.73600
O297        O  0.91375219  0.90901637  0.34745975    -0.52900
O298        O  0.88391376  0.99390188  0.28575339    -0.97600
O299        O  0.83070240  0.07564601  0.32204350    -0.54800
O300        O  0.88968510  0.03227325  0.35814526    -0.74200
C301        C  0.89928869  0.03900412  0.39176542     0.98200
O302        O  0.82600375  0.00016397  0.49931304    -0.63000
O303        O  0.67528801  0.00133405  0.40793277    -0.57800
O304        O  0.79364599  0.04459548  0.46090925    -0.94500
O305        O  0.73726707  0.04676499  0.43304126    -0.92900
O306        O  0.68734732  0.91010260  0.43595819    -0.93300
O307        O  0.74331914  0.90972367  0.48856121    -0.92000
C308        C  0.76049488  0.05748002  0.45768397     1.17000
H309        H  0.70047299  0.93533458  0.36890998     0.33000
H310        H  0.82559519  0.91187517  0.44786899     0.43800
H311        H  0.80144206  0.05252056  0.38701854     0.37300
H312        H  0.83745949  0.93627627  0.29753836     0.33800
H313        H  0.75300681  0.83799791  0.46126068     0.25600
H314        H  0.92023784  0.88265498  0.34265648     0.31500
H315        H  0.89984158  0.01634497  0.28585839     0.37500
H316        H  0.67962536  0.88380828  0.43893166     0.31900
H317        H  0.66476440  0.02674652  0.40640832     0.30800
H318        H  0.70080632  0.07678858  0.36975263     0.32500
H319        H  0.85104982  0.08192523  0.30471548     0.31400
H320        H  0.76003625  0.92975039  0.49724352     0.35400
H321        H  0.82230519  0.97497785  0.50991482     0.28200
H322        H  0.74205058  0.90383210  0.24410483     0.32400
H323        H  0.83465558  0.03881728  0.25523119     0.35300
H324        H  0.66030943  0.98662059  0.39021255     0.27900
H325        H  0.85174559  0.00697399  0.50588868     0.40700
H326        H  0.88327688  0.83695833  0.38921076     0.30800
H327        H  0.78990670  0.83867834  0.43847983     0.38400
H328        H  0.83900809  0.08605289  0.34607503     0.30300
H329        H  0.91137291  0.92030598  0.32247605     0.30300
H330        H  0.77605979  0.93095667  0.24052368     0.30600
Zr331      Zr  0.07316548  0.81867949  0.73911984     2.17500
O332        O  0.07694901  0.75307823  0.75645390    -0.51800
O333        O  0.12680049  0.83125979  0.77780719    -0.75000
O334        O  0.12057282  0.78630579  0.70473691    -0.81800
O335        O  0.98672944  0.82098687  0.79703564    -0.83500
O336        O  0.13606382  0.81914573  0.65304408    -0.79100
O337        O  0.04105569  0.78965733  0.79123720    -0.90800
O338        O  0.13910236  0.89295475  0.77932245    -0.76700
O339        O  0.10847297  0.87072356  0.71881065    -0.86200
O340        O  0.05059218  0.87012071  0.77379627    -0.85900
O341        O  0.06178980  0.82212044  0.67305862    -0.72700
O342        O  0.00866106  0.82205977  0.72330260    -0.84800
Zr343      Zr  0.00927369  0.93207316  0.67227044     2.26400
Zr344      Zr  0.09718034  0.87557665  0.65350453     2.06300
Zr345      Zr  0.98664198  0.87473772  0.75692922     2.10000
Zr346      Zr  0.08494854  0.92246401  0.75258975     1.78800
O347        O  0.92515553  0.84738002  0.76192225    -0.93600
O348        O  0.13674015  0.96256802  0.73584941    -0.41400
O349        O  0.02046436  0.92849265  0.73770209    -0.78000
O350        O  0.07409109  0.92866686  0.68735973    -0.96700
O351        O  0.03304378  0.88051565  0.63833147    -0.90000
O352        O  0.97441563  0.87969556  0.69203315    -0.92900
C353        C  0.14739377  0.85902063  0.78652396     1.00900
C354        C  0.00901059  0.79465076  0.80579007     1.13800
C355        C  0.13925481  0.79080377  0.67484755     1.04600
O356        O  0.15994859  0.90008646  0.65646794    -0.95000
O357        O  0.09670638  0.92990091  0.61187568    -0.90800
O358        O  0.04324680  0.96144924  0.62312460    -0.83900
C359        C  0.07405912  0.95709385  0.60617560     1.11200
O360        O  0.98695218  0.76277171  0.67188060    -0.97000
Zr361      Zr  0.99770577  0.82838529  0.65781987     1.88900
O362        O  0.97439111  0.92124179  0.61559277    -0.73600
O363        O  0.10545864  0.85566460  0.58942466    -0.52900
O364        O  0.01758590  0.78852291  0.60689770    -0.97600
O365        O  0.93090683  0.81773422  0.65649711    -0.54800
O366        O  0.97571339  0.85972453  0.60184363    -0.74200
C367        C  0.96846742  0.89378608  0.59353245     0.98200
O368        O  0.00349200  0.99981118  0.67619454    -0.63000
O369        O  0.98082675  0.90293339  0.81818863    -0.57800
O370        O  0.95102638  0.95624472  0.69683972    -0.94500
O371        O  0.94026240  0.92257014  0.74934663    -0.92900
O372        O  0.07381807  0.93321523  0.81848115    -0.93300
O373        O  0.07790561  0.98827623  0.76726862    -0.92000
C374        C  0.93198423  0.94812485  0.72588010     1.17000
H375        H  0.05371222  0.86599191  0.80010506     0.33000
H376        H  0.08655307  0.95112543  0.67956875     0.43800
H377        H  0.94833603  0.88321766  0.68727041     0.37300
H378        H  0.06964576  0.79975053  0.66053316     0.33800
H379        H  0.15094162  0.96580364  0.75915263     0.25600
H380        H  0.13261687  0.85401622  0.58604755     0.31500
H381        H  0.02956212  0.80564127  0.58900116     0.37500
H382        H  0.09432208  0.92038987  0.83151141     0.31900
H383        H  0.95415139  0.90109947  0.82423117     0.30800
H384        H  0.91575785  0.85554632  0.78641522     0.32500
H385        H  0.92694034  0.80049569  0.63543774     0.31400
H386        H  0.06329226  0.99858188  0.74638286     0.35400
H387        H  0.00252395  0.00521270  0.70313824     0.28200
H388        H  0.07419306  0.73896485  0.73302431     0.32400
H389        H  0.97074545  0.75319217  0.65189716     0.35300
H390        H  0.99292668  0.88518237  0.83540511     0.27900
H391        H  0.02764772  0.01020066  0.66840904     0.40700
H392        H  0.17321289  0.88325364  0.67373909     0.30800
H393        H  0.15277830  0.94674258  0.72013630     0.38400
H394        H  0.91976713  0.84140518  0.64787098     0.30300
H395        H  0.09683368  0.82950314  0.58894822     0.30300
H396        H  0.10291717  0.74896014  0.76430803     0.30600
Zr397      Zr  0.31767030  0.75987682  0.92326104     2.17500
O398        O  0.25254593  0.74213300  0.91920360    -0.51800
O399        O  0.32864158  0.72469029  0.86648500    -0.75000
O400        O  0.28379839  0.79602812  0.87903496    -0.81800
O401        O  0.32089790  0.70052774  0.00945082    -0.83500
O402        O  0.31437623  0.84865340  0.86288590    -0.79100
O403        O  0.28995729  0.70684191  0.95484833    -0.90800
O404        O  0.38964394  0.72653934  0.85234700    -0.76700
O405        O  0.36754033  0.78360243  0.88744303    -0.86200
O406        O  0.37004538  0.72502295  0.94252895    -0.85900
O407        O  0.31947128  0.82547602  0.93787488    -0.72700
O408        O  0.32258763  0.77283696  0.98838406    -0.84800
Zr409      Zr  0.43072913  0.82634987  0.98682748     2.26400
Zr410      Zr  0.37077975  0.84855490  0.90187237     2.06300
Zr411      Zr  0.37602839  0.73883257  0.00719570     2.10000
Zr412      Zr  0.42030919  0.74951894  0.90752126     1.78800
O413        O  0.35686038  0.73278328  0.07171698    -0.93600
O414        O  0.46086421  0.77171907  0.85816505    -0.41400
O415        O  0.42748579  0.76137776  0.97250009    -0.78000
O416        O  0.42502651  0.81447461  0.92136726    -0.96700
O417        O  0.37808918  0.86049119  0.96662603    -0.90000
O418        O  0.38045036  0.80339600  0.02272421    -0.92900
C419        C  0.35591097  0.71896406  0.84433069     1.00900
C420        C  0.29457687  0.69217916  0.98701842     1.13800
C421        C  0.28645693  0.82631940  0.86062592     1.04600
O422        O  0.39175773  0.85368334  0.83784771    -0.95000
O423        O  0.42518710  0.88957991  0.90137662    -0.90800
O424        O  0.45723095  0.87913172  0.95491579    -0.83900
C425        C  0.45224751  0.89592708  0.92387916     1.11200
O426        O  0.26365130  0.82301538  0.01707567    -0.97000
Zr427      Zr  0.32793385  0.83792695  0.00254497     1.88900
O428        O  0.42034766  0.87932904  0.02717674    -0.73600
O429        O  0.34761951  0.91216802  0.90516523    -0.52900
O430        O  0.28954635  0.89035023  0.98318851    -0.97600
O431        O  0.31720511  0.83664899  0.06947356    -0.54800
O432        O  0.35910742  0.89265623  0.02726488    -0.74200
C433        C  0.39291091  0.90072661  0.03478519     0.98200
O434        O  0.49840882  0.82502239  0.98719334    -0.63000
O435        O  0.39973154  0.67529501  0.00633072    -0.57800
O436        O  0.45882863  0.79667755  0.04105336    -0.94500
O437        O  0.43173696  0.73964529  0.04428270    -0.92900
O438        O  0.43067513  0.68245879  0.90838176    -0.93300
O439        O  0.48511047  0.73288437  0.91663061    -0.92000
C440        C  0.45640770  0.76337830  0.05399858     1.17000
H441        H  0.36642209  0.69876916  0.93821817     0.33000
H442        H  0.44679146  0.82339825  0.90865665     0.43800
H443        H  0.38502695  0.80667850  0.04891565     0.37300
H444        H  0.29666858  0.83784461  0.93121415     0.33800
H445        H  0.46331772  0.75032627  0.84102991     0.25600
H446        H  0.35023750  0.92197878  0.87960027     0.31500
H447        H  0.28638590  0.90556257  0.00588076     0.37500
H448        H  0.44281518  0.67695583  0.88435853     0.31900
H449        H  0.42222945  0.67665649  0.99069039     0.30800
H450        H  0.36263948  0.70664563  0.07834077     0.32500
H451        H  0.30182465  0.85891995  0.07447090     0.31400
H452        H  0.48838734  0.73120764  0.94387966     0.35400
H453        H  0.50516788  0.79841160  0.98977332     0.28200
H454        H  0.24847448  0.73454778  0.89310716     0.32400
H455        H  0.25287434  0.84583851  0.02803969     0.35300
H456        H  0.40918083  0.67072589  0.03174423     0.27900
H457        H  0.50609835  0.83110495  0.96150984     0.40700
H458        H  0.38061671  0.87714870  0.82865539     0.30800
H459        H  0.44573858  0.79005557  0.84427845     0.38400
H460        H  0.34133735  0.84262684  0.08103140     0.30300
H461        H  0.32058659  0.90956184  0.90884692     0.30300
H462        H  0.23808531  0.76537431  0.92234131     0.30600
Zr463      Zr  0.25897363  0.57701621  0.68217138     2.17500
O464        O  0.24822945  0.57919517  0.74900493    -0.51800
O465        O  0.22015842  0.63130956  0.67019088    -0.75000
O466        O  0.29211424  0.62724214  0.71143511    -0.81800
O467        O  0.20473645  0.48779586  0.68437706    -0.83500
O468        O  0.34399899  0.64097515  0.67824253    -0.79100
O469        O  0.20665921  0.54471936  0.71166527    -0.90800
O470        O  0.21960344  0.64211734  0.60830088    -0.76700
O471        O  0.27852756  0.61118646  0.62897164    -0.86200
O472        O  0.22415861  0.55206097  0.63205400    -0.85900
O473        O  0.32503200  0.56690902  0.67709152    -0.72700
O474        O  0.27657867  0.51259621  0.68015573    -0.84800
Zr475      Zr  0.32482421  0.51107188  0.56896822     2.26400
Zr476      Zr  0.34371237  0.60109369  0.62238170     2.06300
Zr477      Zr  0.24259359  0.48798692  0.62909074     2.10000
Zr478      Zr  0.24376555  0.58631019  0.57898733     1.78800
O479        O  0.24138717  0.42657601  0.65780879    -0.93600
O480        O  0.25942526  0.63721780  0.53695171    -0.41400
O481        O  0.25945739  0.52137336  0.57429338    -0.78000
O482        O  0.30866893  0.57610138  0.57131321    -0.96700
O483        O  0.35967333  0.53669886  0.61881247    -0.90000
O484        O  0.30738392  0.47713811  0.62270124    -0.92900
C485        C  0.21262208  0.65175331  0.64182336     1.00900
C486        C  0.19420254  0.51121355  0.70905868     1.13800
C487        C  0.32222819  0.64534671  0.70635185     1.04600
O488        O  0.33985869  0.66453617  0.59864125    -0.95000
O489        O  0.38245710  0.60075601  0.56536965    -0.90800
O490        O  0.37155152  0.54552645  0.53672515    -0.83900
C491        C  0.38761685  0.57721039  0.53866376     1.11200
O492        O  0.33323561  0.49461547  0.73922240    -0.97000
Zr493      Zr  0.34184820  0.50285825  0.67252572     1.88900
O494        O  0.38261189  0.47723298  0.57902208    -0.73600
O495        O  0.40841220  0.60732137  0.64033637    -0.52900
O496        O  0.39535190  0.52807868  0.70518587    -0.97600
O497        O  0.34221803  0.43709024  0.68987767    -0.54800
O498        O  0.39522012  0.47674173  0.64073010    -0.74200
C499        C  0.40384032  0.46994158  0.60683464     0.98200
O500        O  0.31958454  0.50606064  0.50144178    -0.63000
O501        O  0.18089068  0.48030757  0.60293286    -0.57800
O502        O  0.30054169  0.45150449  0.54702448    -0.94500
O503        O  0.24953209  0.44011794  0.58232155    -0.92900
O504        O  0.17697205  0.58058037  0.57160705    -0.93300
O505        O  0.22846529  0.57463067  0.51418466    -0.92000
C506        C  0.27232378  0.43177537  0.55628895     1.17000
H507        H  0.19791671  0.55463576  0.63635817     0.33000
H508        H  0.31538351  0.58822041  0.54837570     0.43800
H509        H  0.31275853  0.45099559  0.61991569     0.37300
H510        H  0.33769275  0.57558411  0.69903031     0.33800
H511        H  0.23686507  0.65284758  0.53581324     0.25600
H512        H  0.41432577  0.63385140  0.63572301     0.31500
H513        H  0.41191995  0.53727795  0.68530947     0.37500
H514        H  0.16839363  0.60607581  0.56555951     0.31900
H515        H  0.16381983  0.49013123  0.62204339     0.30800
H516        H  0.21543702  0.41809717  0.65523157     0.32500
H517        H  0.36494316  0.43387867  0.70493770     0.31400
H518        H  0.25213214  0.56674124  0.50276678     0.35400
H519        H  0.29358315  0.49882012  0.49661590     0.28200
H520        H  0.23927470  0.60473239  0.75424685     0.32400
H521        H  0.35722040  0.48554656  0.74900206     0.35300
H522        H  0.17968913  0.49878549  0.58252599     0.27900
H523        H  0.32087577  0.53192753  0.49193948     0.40700
H524        H  0.32442724  0.67811628  0.61686891     0.30800
H525        H  0.27752517  0.65247097  0.55089530     0.38400
H526        H  0.34757766  0.42326716  0.66675465     0.30300
H527        H  0.40851466  0.60483782  0.66770864     0.30300
H528        H  0.27306292  0.57780787  0.76057266     0.30600
Zr529      Zr  0.51075172  0.57075489  0.32339261     2.17500
O530        O  0.50134003  0.50352366  0.32032275    -0.51800
O531        O  0.47411800  0.58156945  0.37929314    -0.75000
O532        O  0.54519552  0.53803319  0.37039764    -0.81800
O533        O  0.44253053  0.58422462  0.24579148    -0.83500
O534        O  0.59821260  0.56913609  0.38433413    -0.79100
O535        O  0.45466550  0.54606750  0.29486358    -0.90800
O536        O  0.47163433  0.64337351  0.39144930    -0.76700
O537        O  0.53340079  0.62153519  0.35912191    -0.86200
O538        O  0.47682071  0.62371288  0.30319868    -0.85900
O539        O  0.57601277  0.57377181  0.31020407    -0.72700
O540        O  0.52407607  0.57573909  0.25827042    -0.84800
Zr541      Zr  0.57743496  0.68448599  0.25926699     2.26400
Zr542      Zr  0.59807138  0.62595621  0.34579511     2.06300
Zr543      Zr  0.49105759  0.62984565  0.23860395     2.10000
Zr544      Zr  0.49974506  0.67444472  0.33823036     1.78800
O545        O  0.48099491  0.59739690  0.18018979    -0.93600
O546        O  0.51838451  0.71089425  0.39206179    -0.41400
O547        O  0.51257549  0.68205419  0.27313992    -0.78000
O548        O  0.56426122  0.67980502  0.32474867    -0.96700
O549        O  0.61117713  0.63186459  0.28108904    -0.90000
O550        O  0.55549107  0.63305587  0.22421802    -0.92900
C551        C  0.46497514  0.60927712  0.39997533     1.00900
C552        C  0.43485229  0.55668241  0.26716584     1.13800
C553        C  0.57579501  0.54139843  0.38801279     1.04600
O554        O  0.59943104  0.64868377  0.40942626    -0.95000
O555        O  0.63843548  0.68115834  0.34629896    -0.90800
O556        O  0.62763995  0.71285219  0.29256319    -0.83900
C557        C  0.64418572  0.70849117  0.32372106     1.11200
O558        O  0.57745896  0.51528737  0.23233589    -0.97000
Zr559      Zr  0.58922517  0.58069719  0.24575432     1.88900
O560        O  0.63312564  0.67326550  0.22291406    -0.73600
O561        O  0.66151887  0.60316018  0.34816077    -0.52900
O562        O  0.63864516  0.53907312  0.26585420    -0.97600
O563        O  0.58827866  0.56963820  0.17887552    -0.54800
O564        O  0.64492738  0.61131789  0.22312414    -0.74200
C565        C  0.65420905  0.64517180  0.21638895     0.98200
O566        O  0.57438942  0.75241023  0.25589779    -0.63000
O567        O  0.43487905  0.66694362  0.23276232    -0.57800
O568        O  0.55232463  0.70921337  0.20103855    -0.94500
O569        O  0.50029118  0.67525894  0.18971347    -0.92900
O570        O  0.43411833  0.68820641  0.33077152    -0.93300
O571        O  0.48918550  0.74093728  0.33012270    -0.92000
C572        C  0.52380630  0.70073198  0.18138258     1.17000
H573        H  0.45062440  0.62066167  0.30760533     0.33000
H574        H  0.57246455  0.70196761  0.33743549     0.43800
H575        H  0.55976532  0.63642311  0.19800123     0.37300
H576        H  0.58823395  0.55100591  0.31751015     0.33800
H577        H  0.49499853  0.71623589  0.40537257     0.25600
H578        H  0.66793418  0.60321914  0.37489514     0.31500
H579        H  0.65933446  0.54370352  0.24844193     0.37500
H580        H  0.42481028  0.69200607  0.35633674     0.31900
H581        H  0.42106462  0.65524787  0.21209271     0.30800
H582        H  0.49651043  0.57473444  0.18209410     0.32500
H583        H  0.60781649  0.55076063  0.17464979     0.31400
H584        H  0.51276184  0.75054151  0.31987922     0.35400
H585        H  0.54775717  0.75817722  0.25278607     0.28200
H586        H  0.49254612  0.49601592  0.34525985     0.32400
H587        H  0.55963408  0.50726821  0.25163095     0.35300
H588        H  0.42021348  0.66088923  0.25518653     0.27900
H589        H  0.58002517  0.76147469  0.28122573     0.40700
H590        H  0.57849626  0.63597986  0.42185227     0.30800
H591        H  0.53154125  0.69295494  0.40826712     0.38400
H592        H  0.59835871  0.59257802  0.16744223     0.30300
H593        H  0.65976877  0.57645894  0.34153112     0.30300
H594        H  0.52641703  0.49256229  0.31809489     0.30600
Zr595      Zr  0.67992069  0.26340352  0.57841982     2.17500
O596        O  0.74620217  0.25098479  0.57539063    -0.51800
O597        O  0.66924456  0.23037625  0.63666305    -0.75000
O598        O  0.71264905  0.29945146  0.62404582    -0.81800
O599        O  0.66775349  0.19178062  0.50299565    -0.83500
O600        O  0.68218297  0.35401972  0.63409650    -0.79100
O601        O  0.70426764  0.20528543  0.55265629    -0.90800
O602        O  0.60764381  0.23053571  0.64830990    -0.76700
O603        O  0.62966941  0.28997056  0.61207236    -0.86200
O604        O  0.62675018  0.22883371  0.56084660    -0.85900
O605        O  0.67814700  0.32823766  0.56066828    -0.72700
O606        O  0.67506747  0.27251413  0.51266063    -0.84800
Zr607      Zr  0.56780988  0.32822962  0.50934192     2.26400
Zr608      Zr  0.62638335  0.35407520  0.59404194     2.06300
Zr609      Zr  0.62081476  0.23889020  0.49551977     2.10000
Zr610      Zr  0.57663649  0.25549433  0.59395115     1.78800
O611        O  0.64880586  0.22733640  0.43514903    -0.93600
O612        O  0.54279572  0.27901793  0.64753009    -0.41400
O613        O  0.56936289  0.26411843  0.52825042    -0.78000
O614        O  0.57217459  0.31924671  0.57580736    -0.96700
O615        O  0.62072516  0.36266661  0.52853847    -0.90000
O616        O  0.61832643  0.30257625  0.47586108    -0.92900
C617        C  0.64119666  0.22357748  0.65759046     1.00900
C618        C  0.69475065  0.18477270  0.52500809     1.13800
C619        C  0.70928227  0.33118420  0.63986665     1.04600
O620        O  0.60865168  0.36781533  0.65776892    -0.95000
O621        O  0.57009259  0.39336629  0.59321772    -0.90800
O622        O  0.53774795  0.37920327  0.54080057    -0.83900
C623        C  0.54229689  0.39754324  0.57094400     1.11200
O624        O  0.73650940  0.32244934  0.48573411    -0.97000
Zr625      Zr  0.67126347  0.33692489  0.49522948     1.88900
O626        O  0.58079338  0.38188293  0.46985501    -0.73600
O627        O  0.65029051  0.41685218  0.58503776    -0.52900
O628        O  0.71192515  0.38915144  0.50956802    -0.97600
O629        O  0.68286663  0.32776133  0.42913808    -0.54800
O630        O  0.64266454  0.39186395  0.46794204    -0.74200
C631        C  0.60918880  0.40169812  0.46118102     0.98200
O632        O  0.50111802  0.32852242  0.49853187    -0.63000
O633        O  0.58778036  0.17967148  0.49557801    -0.57800
O634        O  0.54054860  0.29612525  0.45573972    -0.94500
O635        O  0.56989055  0.24022252  0.45243565    -0.92900
O636        O  0.55995082  0.18967965  0.59382807    -0.93300
O637        O  0.51019489  0.24653306  0.58675106    -0.92000
C638        C  0.54498850  0.26335904  0.44195235     1.17000
H639        H  0.62966069  0.20275613  0.56690672     0.33000
H640        H  0.55018892  0.32811663  0.58809811     0.43800
H641        H  0.61438107  0.30463697  0.44943792     0.37300
H642        H  0.70091138  0.34059807  0.56738321     0.33800
H643        H  0.53548862  0.25644232  0.66155584     0.25600
H644        H  0.64038770  0.43119882  0.60629203     0.31500
H645        H  0.69522670  0.40917726  0.51828390     0.37500
H646        H  0.58090118  0.17656688  0.60583066     0.31900
H647        H  0.60262795  0.16300905  0.47954240     0.30800
H648        H  0.63968342  0.20238116  0.42789042     0.32500
H649        H  0.66216744  0.34033516  0.41617762     0.31400
H650        H  0.50002372  0.27198107  0.58377617     0.35400
H651        H  0.48955482  0.32968150  0.52342607     0.28200
H652        H  0.75333011  0.24287674  0.60069911     0.32400
H653        H  0.74508430  0.33955960  0.46594637     0.35300
H654        H  0.59101678  0.16951026  0.52093144     0.27900
H655        H  0.49565449  0.35293023  0.48689983     0.40700
H656        H  0.61131709  0.34381172  0.67106446     0.30800
H657        H  0.56187818  0.29098530  0.66323263     0.38400
H658        H  0.67871526  0.30085281  0.42483295     0.30300
H659        H  0.67716627  0.41489248  0.59003438     0.30300
H660        H  0.75803151  0.27563642  0.57208551     0.30600
Zr661      Zr  0.66866219  0.00762355  0.92739922     2.17500
O662        O  0.67176355  0.99679039  0.99421133    -0.51800
O663        O  0.61030255  0.97528989  0.91585139    -0.75000
O664        O  0.62335960  0.04384748  0.96052230    -0.81800
O665        O  0.74301680  0.93579537  0.91475567    -0.83500
O666        O  0.61314558  0.09887678  0.93089043    -0.79100
O667        O  0.69354417  0.94897951  0.95149870    -0.90800
O668        O  0.59821213  0.97587334  0.85405366    -0.76700
O669        O  0.63450995  0.03383222  0.87728394    -0.86200
O670        O  0.68657706  0.97355202  0.87371639    -0.85900
O671        O  0.68575186  0.07254407  0.92568779    -0.72700
O672        O  0.73422508  0.01786305  0.92289966    -0.84800
Zr673      Zr  0.73518404  0.07355416  0.81481020     2.26400
Zr674      Zr  0.65131997  0.09812956  0.87445291     2.06300
Zr675      Zr  0.75166949  0.98431292  0.86863877     2.10000
Zr676      Zr  0.65289469  0.00022269  0.82362485     1.78800
O677        O  0.81140409  0.97680011  0.89910127    -0.93600
O678        O  0.60234221  0.02607665  0.78692524    -0.41400
O679        O  0.71830104  0.00890517  0.81691610    -0.78000
O680        O  0.66932877  0.06444573  0.81952242    -0.96700
O681        O  0.71639016  0.10771085  0.86802609    -0.90000
O682        O  0.76958224  0.04836722  0.86528218    -0.92900
C683        C  0.58917000  0.96892851  0.88776849     1.00900
C684        C  0.72095993  0.92837316  0.94170357     1.13800
C685        C  0.60785300  0.07583311  0.95783965     1.04600
O686        O  0.58730500  0.10462564  0.85426633    -0.95000
O687        O  0.65220937  0.14080199  0.82114389    -0.90800
O688        O  0.70361486  0.12639885  0.78754729    -0.83900
C689        C  0.67425926  0.14561021  0.79340806     1.11200
O690        O  0.76109829  0.06884086  0.98392825    -0.97000
Zr691      Zr  0.75065840  0.08269698  0.91838977     1.88900
O692        O  0.77564977  0.12609216  0.82661427    -0.73600
O693        O  0.65439416  0.16130207  0.89879191    -0.52900
O694        O  0.73272421  0.13558999  0.95681107    -0.97600
O695        O  0.81691100  0.07630822  0.93030967    -0.54800
O696        O  0.77887268  0.13673010  0.88853148    -0.74200
C697        C  0.78546670  0.14579714  0.85465793     0.98200
O698        O  0.74098851  0.07416603  0.74731859    -0.63000
O699        O  0.75871387  0.92470936  0.83711893    -0.57800
O700        O  0.78878618  0.04291065  0.78681008    -0.94500
O701        O  0.79423065  0.98750327  0.81708292    -0.92900
O702        O  0.64958526  0.93434438  0.80784204    -0.93300
O703        O  0.66283634  0.98942756  0.75763794    -0.92000
C704        C  0.80364189  0.01070807  0.79168314     1.17000
H705        H  0.68081262  0.94735397  0.87615514     0.33000
H706        H  0.65695316  0.07410153  0.79777376     0.43800
H707        H  0.79586483  0.05082788  0.86107346     0.37300
H708        H  0.67924322  0.08463369  0.94871114     0.33800
H709        H  0.58678692  0.00434257  0.78042117     0.25600
H710        H  0.62887331  0.17103088  0.89616117     0.31500
H711        H  0.73089274  0.15694868  0.93949353     0.37500
H712        H  0.62489317  0.93119119  0.79629894     0.31900
H713        H  0.77936740  0.91214879  0.85020366     0.30800
H714        H  0.80777928  0.98722846  0.92427160     0.32500
H715        H  0.82299911  0.09694079  0.94746213     0.31400
H716        H  0.67569583  0.01211828  0.74879350     0.35400
H717        H  0.71531862  0.07523962  0.73771237     0.28200
H718        H  0.64651361  0.98913153  0.00170367     0.32400
H719        H  0.77460479  0.09048536  0.99421068     0.35300
H720        H  0.73644418  0.91019060  0.84395951     0.27900
H721        H  0.75188145  0.09869628  0.74106804     0.40700
H722        H  0.57463508  0.08220940  0.86403222     0.30800
H723        H  0.58727833  0.04029982  0.80495926     0.38400
H724        H  0.82928060  0.08339089  0.90682132     0.30300
H725        H  0.65792466  0.15826914  0.92588896     0.30300
H726        H  0.67536474  0.02168988  0.00545268     0.30600
Zr727      Zr  0.92805744  0.67153334  0.00863307     2.17500
O728        O  0.99353246  0.67022077  0.99196764    -0.51800
O729        O  0.91675132  0.61314142  0.97589170    -0.75000
O730        O  0.96221617  0.62807191  0.04540545    -0.81800
O731        O  0.91502146  0.74858410  0.93834687    -0.83500
O732        O  0.93254555  0.61412653  0.09916141    -0.79100
O733        O  0.95205773  0.69904739  0.95143854    -0.90800
O734        O  0.85589649  0.59856664  0.97942023    -0.76700
O735        O  0.87919717  0.63645500  0.03585138    -0.86200
O736        O  0.87410789  0.68851483  0.97530201    -0.85900
O737        O  0.92743019  0.68887402  0.07334748    -0.72700
O738        O  0.92345238  0.73741792  0.01828433    -0.84800
Zr739      Zr  0.81694011  0.73837173  0.07542745     2.26400
Zr740      Zr  0.87670925  0.65404959  0.09990036     2.06300
Zr741      Zr  0.86826914  0.75391867  0.98584991     2.10000
Zr742      Zr  0.82520088  0.65399760  0.00262661     1.78800
O743        O  0.89274728  0.81692018  0.98168115    -0.93600
O744        O  0.78974158  0.60191033  0.02758168    -0.41400
O745        O  0.81740933  0.71994571  0.01130875    -0.78000
O746        O  0.82168426  0.67192411  0.06626287    -0.96700
O747        O  0.87051123  0.71981727  0.10902482    -0.90000
O748        O  0.86640481  0.77294553  0.04937593    -0.92900
C749        C  0.88947042  0.59068944  0.97096844     1.00900
C750        C  0.94228770  0.72689971  0.93125780     1.13800
C751        C  0.95976282  0.61052221  0.07618071     1.04600
O752        O  0.85598467  0.59026366  0.10960852    -0.95000
O753        O  0.82222657  0.65348378  0.14129188    -0.90800
O754        O  0.78878397  0.70490239  0.12596171    -0.83900
C755        C  0.79401997  0.67525398  0.14504259     1.11200
O756        O  0.98411670  0.76938459  0.06689151    -0.97000
Zr757      Zr  0.92016551  0.75437466  0.08286035     1.88900
O758        O  0.83051198  0.77824720  0.12834371    -0.73600
O759        O  0.90173153  0.65974400  0.16243429    -0.52900
O760        O  0.96167851  0.73519932  0.13277882    -0.97600
O761        O  0.93036787  0.82142341  0.07695645    -0.54800
O762        O  0.89224488  0.78137285  0.13825490    -0.74200
C763        C  0.85863936  0.78752261  0.14810400     0.98200
O764        O  0.75067450  0.75044924  0.08074426    -0.63000
O765        O  0.84329634  0.75664808  0.92301178    -0.57800
O766        O  0.78708191  0.79069569  0.04349380    -0.94500
O767        O  0.81411744  0.79295768  0.98665452    -0.92900
O768        O  0.81221686  0.65262452  0.93628262    -0.93300
O769        O  0.75887076  0.65943322  0.99159545    -0.92000
C770        C  0.78972866  0.80347463  0.01021728     1.17000
H771        H  0.87663970  0.68287852  0.94920999     0.33000
H772        H  0.80006765  0.65921329  0.07555221     0.43800
H773        H  0.86173977  0.79934134  0.05146594     0.37300
H774        H  0.95049275  0.68238070  0.08522465     0.33800
H775        H  0.78219445  0.58732406  0.00552231     0.25600
H776        H  0.90515255  0.63373938  0.17096438     0.31500
H777        H  0.96059393  0.75560317  0.15119919     0.37500
H778        H  0.80069339  0.62797572  0.93200480     0.31900
H779        H  0.81868917  0.74464467  0.92474975     0.30800
H780        H  0.91603778  0.81613205  0.99616040     0.32500
H781        H  0.94569150  0.82816341  0.09872944     0.31400
H782        H  0.75533801  0.68505762  0.98203207     0.35400
H783        H  0.73855319  0.72573737  0.07977362     0.28200
H784        H  0.99907262  0.64397418  0.98555803     0.32400
H785        H  0.99466985  0.78219546  0.08880200     0.35300
H786        H  0.83796640  0.78330277  0.91835111     0.27900
H787        H  0.74675553  0.75941056  0.10645065     0.40700
H788        H  0.86084382  0.57757707  0.08571752     0.30800
H789        H  0.80830653  0.58601061  0.04016511     0.38400
H790        H  0.90618272  0.83329253  0.08207081     0.30300
H791        H  0.92718192  0.66929994  0.15886134     0.30300
H792        H  0.00725780  0.67496839  0.01527411     0.30600
C793        C  0.72865559  0.89342942  0.96208182    -0.05900
C794        C  0.73510983  0.89361940  0.00062482    -0.33300
C795        C  0.75254441  0.86308135  0.01800905     0.35900
C796        C  0.76345586  0.83207505  0.99659577    -0.06300
C797        C  0.75327750  0.83065826  0.95901410    -0.33200
C798        C  0.73613431  0.86085134  0.94181294     0.35800
H799        H  0.72945772  0.91851732  0.01660891     0.16200
O800        O  0.76221047  0.86559557  0.05474289    -0.60700
H801        H  0.76060325  0.80672617  0.94222559     0.16200
O802        O  0.72917280  0.85927688  0.90440274    -0.60800
H803        H  0.70524112  0.84596184  0.90210836     0.43200
H804        H  0.74307225  0.85117736  0.06827405     0.43200
C805        C  0.64819105  0.20742894  0.69512835    -0.05900
C806        C  0.68420815  0.20831667  0.70992714    -0.33300
C807        C  0.69236540  0.19121912  0.74391836     0.35900
C808        C  0.66440458  0.17262735  0.76393480    -0.06300
C809        C  0.62786878  0.17428249  0.75086840    -0.33200
C810        C  0.61958578  0.19145790  0.71681687     0.35800
H811        H  0.70647682  0.22167317  0.69480395     0.16200
O812        O  0.72792873  0.19245476  0.75728623    -0.60700
H813        H  0.60601480  0.16000041  0.76577403     0.16200
O814        O  0.58386864  0.19008976  0.70396254    -0.60800
H815        H  0.57074246  0.21049242  0.71701840     0.43200
H816        H  0.74215096  0.17480795  0.74166508     0.43200
C817        C  0.60226689  0.43890498  0.44395178    -0.05900
C818        C  0.56591704  0.45276650  0.44344165    -0.33300
C819        C  0.55771563  0.48740353  0.42801239     0.35900
C820        C  0.58585681  0.50927292  0.41185689    -0.06300
C821        C  0.62254741  0.49650052  0.41359980    -0.33200
C822        C  0.63090389  0.46161366  0.42939414     0.35800
H823        H  0.54333901  0.43658211  0.45484545     0.16200
O824        O  0.52161083  0.49913935  0.42789992    -0.60700
H825        H  0.64455388  0.51265684  0.40100677     0.16200
O826        O  0.66700467  0.44982257  0.42961491    -0.60800
H827        H  0.67046484  0.43672871  0.40563798     0.43200
H828        H  0.51953017  0.51620465  0.44942515     0.43200
C829        C  0.69207418  0.65236598  0.20137753    -0.05900
C830        C  0.71497198  0.62252092  0.19021099    -0.33300
C831        C  0.75014875  0.62896318  0.17473384     0.35900
C832        C  0.76318775  0.66569313  0.17052164    -0.06300
C833        C  0.74161065  0.69507206  0.18442540    -0.33200
C834        C  0.70636683  0.68890629  0.19898892     0.35800
H835        H  0.70514255  0.59409297  0.19223637     0.16200
O836        O  0.77000841  0.59944405  0.16111799    -0.60700
H837        H  0.75120190  0.72355216  0.18190615     0.16200
O838        O  0.68607695  0.71912522  0.21029348    -0.60800
H839        H  0.67594309  0.73022721  0.18718480     0.43200
H840        H  0.78789651  0.59303011  0.18102053     0.43200
C841        C  0.44114384  0.45382905  0.59896893    -0.05900
C842        C  0.45542844  0.45579625  0.56270007    -0.33300
C843        C  0.48989631  0.44036989  0.55392391     0.35900
C844        C  0.51108450  0.42221442  0.58147012    -0.06300
C845        C  0.49798810  0.42200355  0.61812523    -0.33200
C846        C  0.46333205  0.43737220  0.62699105     0.35800
H847        H  0.43971568  0.46912563  0.54075556     0.16200
O848        O  0.50212868  0.44222003  0.51792733    -0.60700
H849        H  0.51359569  0.40784319  0.63962334     0.16200
O850        O  0.45112033  0.43507481  0.66296572    -0.60800
H851        H  0.43829785  0.41071196  0.66471858     0.43200
H852        H  0.51731217  0.46519337  0.51667692     0.43200
C853        C  0.41154910  0.58633478  0.50597516    -0.05900
C854        C  0.41927826  0.55761947  0.48046344    -0.33300
C855        C  0.43589113  0.56464155  0.44610639     0.35900
C856        C  0.44654861  0.60120109  0.43641676    -0.06300
C857        C  0.44022694  0.62993374  0.46247577    -0.33200
C858        C  0.42266319  0.62281862  0.49675255     0.35800
H859        H  0.41110319  0.52918472  0.48634662     0.16200
O860        O  0.43918303  0.53585279  0.42118029    -0.60700
H861        H  0.44836535  0.65825716  0.45609980     0.16200
O862        O  0.41580218  0.65186831  0.52045062    -0.60800
H863        H  0.39230757  0.66306684  0.51158418     0.43200
H864        H  0.45219863  0.51545170  0.43436795     0.43200
C865        C  0.48290023  0.75066779  0.08258836    -0.05900
C866        C  0.49208242  0.77365196  0.11276782    -0.33300
C867        C  0.50935571  0.75856777  0.14439256     0.35900
C868        C  0.51703978  0.72013174  0.14595440    -0.06300
C869        C  0.51140067  0.69825788  0.11428164    -0.33200
C870        C  0.49495893  0.71331978  0.08261078     0.35800
H871        H  0.48335047  0.80252073  0.11302491     0.16200
O872        O  0.51494150  0.78069469  0.17485771    -0.60700
H873        H  0.51781415  0.66876106  0.11489311     0.16200
O874        O  0.48854901  0.69062814  0.05265878    -0.60800
H875        H  0.51157623  0.69175005  0.03772105     0.43200
H876        H  0.54125615  0.78840583  0.17336860     0.43200
C877        C  0.55153693  0.95374495  0.89508289    -0.05900
C878        C  0.53600291  0.95797150  0.93060550    -0.33300
C879        C  0.50162935  0.94241526  0.93928588     0.35900
C880        C  0.48217305  0.92155641  0.91251213    -0.06300
C881        C  0.49621189  0.91952825  0.87627639    -0.33200
C882        C  0.53046777  0.93560451  0.86733362     0.35800
H883        H  0.55079624  0.97296629  0.95206699     0.16200
O884        O  0.48805452  0.94639716  0.97461031    -0.60700
H885        H  0.48180091  0.90336245  0.85539629     0.16200
O886        O  0.54405320  0.93115995  0.83206814    -0.60800
H887        H  0.53225975  0.95117718  0.81718450     0.43200
H888        H  0.46893563  0.96614857  0.97278628     0.43200
C889        C  0.34787817  0.70356491  0.80686052    -0.05900
C890        C  0.37656431  0.68798473  0.78542327    -0.33300
C891        C  0.36922985  0.67149447  0.75089827     0.35900
C892        C  0.33276723  0.67047691  0.73712673    -0.06300
C893        C  0.30456814  0.68814438  0.75740509    -0.33200
C894        C  0.31186262  0.70490740  0.79162188     0.35800
H895        H  0.40463526  0.68731365  0.79599368     0.16200
O896        O  0.39752519  0.65451652  0.73201791    -0.60700
H897        H  0.27634155  0.68793198  0.74716894     0.16200
O898        O  0.28333564  0.72208819  0.81000918    -0.60800
H899        H  0.28490570  0.74867004  0.80265269     0.43200
H900        H  0.39759948  0.62835447  0.74090933     0.43200
C901        C  0.99570437  0.76878423  0.83459273    -0.05900
C902        C  0.01704498  0.76138192  0.86637065    -0.33300
C903        C  0.00074254  0.74463189  0.89766828     0.35900
C904        C  0.96290580  0.73519828  0.89701147    -0.06300
C905        C  0.94269781  0.73973282  0.86411138    -0.33200
C906        C  0.95884435  0.75612489  0.83301269     0.35800
H907        H  0.04535927  0.77119077  0.86799934     0.16200
O908        O  0.02072660  0.74149967  0.92989601    -0.60700
H909        H  0.91360569  0.73238945  0.86322364     0.16200
O910        O  0.93750230  0.76211500  0.80202233    -0.60800
H911        H  0.94711014  0.74461681  0.78304325     0.43200
H912        H  0.03498400  0.71805083  0.92728226     0.43200
C913        C  0.89716226  0.96787539  0.73327447    -0.05900
C914        C  0.86523165  0.94627340  0.73768446    -0.33300
C915        C  0.83364077  0.96116801  0.75407506     0.35900
C916        C  0.83361260  0.99826324  0.76677094    -0.06300
C917        C  0.86459064  0.02092004  0.75977513    -0.33200
C918        C  0.89643183  0.00582719  0.74305603     0.35800
H919        H  0.86554085  0.91699413  0.73034853     0.16200
O920        O  0.80363546  0.93845884  0.75978681    -0.60700
H921        H  0.86509852  0.04939542  0.76967454     0.16200
O922        O  0.92774173  0.02718966  0.74004751    -0.60800
H923        H  0.92769706  0.03647881  0.71410770     0.43200
H924        H  0.78781052  0.94188457  0.73754348     0.43200
C925        C  0.16389461  0.75941820  0.66475604    -0.05900
C926        C  0.16577912  0.74664451  0.62799296    -0.33300
C927        C  0.18198322  0.71200373  0.61974550     0.35900
C928        C  0.19625383  0.68928842  0.64865175    -0.06300
C929        C  0.19629005  0.70349865  0.68498185    -0.33200
C930        C  0.18095661  0.73826153  0.69294951     0.35800
H931        H  0.15310389  0.76264923  0.60584732     0.16200
O932        O  0.18317406  0.70060983  0.58342927    -0.60700
H933        H  0.20835850  0.68768556  0.70759323     0.16200
O934        O  0.18214841  0.75109040  0.72876582    -0.60800
H935        H  0.20631031  0.76402885  0.73098230     0.43200
H936        H  0.16092125  0.68483702  0.58001627     0.43200
C937        C  0.18354503  0.85098575  0.80466104    -0.05900
C938        C  0.21099669  0.87883107  0.80748951    -0.29700
C939        C  0.24545013  0.87138053  0.82419575     0.35900
C940        C  0.25331044  0.83536913  0.83767139    -0.06300
C941        C  0.22622274  0.80744838  0.83336628    -0.33200
C942        C  0.19171472  0.81499497  0.81795565     0.35800
H943        H  0.20565903  0.90665222  0.79711919     0.16200
O944        O  0.27069489  0.89965246  0.82776990    -0.60700
H945        H  0.23099052  0.77940280  0.84334986     0.16200
O946        O  0.16543981  0.78735966  0.81825681    -0.60800
H947        H  0.17348750  0.76911966  0.79927392     0.43200
H948        H  0.26643089  0.91006743  0.85290005     0.43200
C949        C  0.70378650  0.80853286  0.34846169    -0.05900
C950        C  0.68842360  0.78729786  0.37759447    -0.33300
C951        C  0.67132991  0.75290550  0.37064831     0.35900
C952        C  0.66946975  0.73914052  0.33411480    -0.06300
C953        C  0.68670424  0.75930912  0.30551245    -0.33200
C954        C  0.70340779  0.79365033  0.31224888     0.35800
H955        H  0.68849861  0.79790814  0.40573766     0.16200
O956        O  0.65401962  0.73461321  0.39922344    -0.60700
H957        H  0.68585865  0.74913014  0.27725344     0.16200
O958        O  0.71937543  0.81225096  0.28308479    -0.60800
H959        H  0.69866181  0.82507830  0.27025858     0.43200
H960        H  0.67343575  0.71871500  0.41055242     0.43200
C961        C  0.83766220  0.83954852  0.25493988    -0.05900
C962        C  0.80868097  0.82437634  0.23374238    -0.33300
C963        C  0.81512682  0.80737017  0.19953602     0.35900
C964        C  0.85144107  0.80512208  0.18507076    -0.06300
C965        C  0.88083820  0.81861187  0.20713735    -0.33200
C966        C  0.87419841  0.83542987  0.24186023     0.35800
H967        H  0.78034864  0.82648463  0.24329523     0.16200
O968        O  0.78545717  0.79256325  0.18089468    -0.60700
H969        H  0.90908955  0.81667349  0.19727673     0.16200
O970        O  0.90340409  0.84963773  0.26158364    -0.60800
H971        H  0.91201325  0.82881923  0.27753201     0.43200
H972        H  0.77453038  0.81363118  0.16681480     0.43200
C973        C  0.95312824  0.90230939  0.55588975    -0.05900
C974        C  0.94350248  0.87335888  0.53120090    -0.33300
C975        C  0.92749589  0.88109293  0.49636387     0.35900
C976        C  0.92073783  0.91826134  0.48569510    -0.06300
C977        C  0.93292354  0.94697693  0.50911055    -0.33200
C978        C  0.94839845  0.93949428  0.54379975     0.35800
H979        H  0.94731280  0.84454469  0.53928948     0.16200
O980        O  0.91610673  0.85211881  0.47440267    -0.60700
H981        H  0.92856147  0.97580867  0.50139289     0.16200
O982        O  0.95821208  0.96908368  0.56576180    -0.60800
H983        H  0.93470792  0.97833608  0.57659031     0.43200
H984        H  0.93748507  0.84666502  0.45801122     0.43200
C985        C  0.74688228  0.08686222  0.48321249    -0.05900
C986        C  0.76902181  0.11766961  0.49274083    -0.33300
C987        C  0.75316627  0.14919565  0.50979632     0.35900
C988        C  0.71489475  0.14992159  0.51728492    -0.06300
C989        C  0.69377221  0.11792793  0.51084298    -0.33200
C990        C  0.70930974  0.08672119  0.49395281     0.35800
H991        H  0.79789169  0.11837200  0.48466352     0.16200
O992        O  0.77443142  0.18025976  0.51562959    -0.60700
H993        H  0.66438510  0.11791080  0.51697823     0.16200
O994        O  0.68718477  0.05642558  0.48703006    -0.60800
H995        H  0.67081363  0.06402629  0.46623090     0.43200
H996        H  0.78274064  0.17835288  0.54180864     0.43200
C997        C  0.10403004  0.46379406  0.77058971    -0.05900
C998        C  0.10498003  0.50254600  0.76505205    -0.33300
C999        C  0.13560230  0.51945351  0.74753545     0.35900
C1000       C  0.16562146  0.49738272  0.73542865    -0.06300
C1001       C  0.16596198  0.45933743  0.74468024    -0.33200
C1002       C  0.13575259  0.44265155  0.76220549     0.35800
H1003       H  0.08082868  0.51922365  0.77147383     0.16200
O1004       O  0.13459367  0.55688069  0.73998975    -0.60700
H1005       H  0.18907225  0.44191397  0.73652385     0.16200
O1006       O  0.13638863  0.40496367  0.76858768    -0.60800
H1007       H  0.14736561  0.40206833  0.79366275     0.43200
H1008       H  0.12279027  0.55899668  0.71521405     0.43200
C1009       C  0.80432161  0.18189208  0.84690374    -0.05900
C1010       C  0.80367892  0.21109626  0.87307840    -0.33300
C1011       C  0.82034720  0.24580695  0.86539502     0.35900
C1012       C  0.83785967  0.25194776  0.83091778    -0.06300
C1013       C  0.83719641  0.22288340  0.80455881    -0.33200
C1014       C  0.82124199  0.18840865  0.81229374     0.35800
H1015       H  0.79007801  0.20712984  0.89958726     0.16200
O1016       O  0.81912109  0.27338045  0.89166165    -0.60700
H1017       H  0.85011031  0.22618167  0.77764824     0.16200
O1018       O  0.82413836  0.16064225  0.78627558    -0.60800
H1019       H  0.80520121  0.16650074  0.76721658     0.43200
H1020       H  0.83825892  0.26655887  0.91021042     0.43200
C1021       C  0.91250849  0.48418669  0.91968845    -0.05900
C1022       C  0.94077974  0.50449621  0.93728158    -0.33300
C1023       C  0.93349173  0.53833272  0.95493346     0.35900
C1024       C  0.89732633  0.55323639  0.95489069    -0.06300
C1025       C  0.86856495  0.53178414  0.93930263    -0.33200
C1026       C  0.87593777  0.49761164  0.92175149     0.35800
H1027       H  0.96912084  0.49460687  0.93642008     0.16200
O1028       O  0.96220190  0.55669360  0.97178727    -0.60700
H1029       H  0.84039376  0.54211804  0.93945649     0.16200
O1030       O  0.84749823  0.47866847  0.90506146    -0.60800
H1031       H  0.84637316  0.48851738  0.87934188     0.43200
H1032       H  0.96330773  0.54620849  0.99725267     0.43200
C1033       C  0.74051291  0.34149068  0.66466637    -0.05900
C1034       C  0.75916366  0.31286659  0.68366721    -0.33300
C1035       C  0.79351367  0.31896886  0.70050822     0.35900
C1036       C  0.81042812  0.35439412  0.69855124    -0.06300
C1037       C  0.79063273  0.38372235  0.68153942    -0.33200
C1038       C  0.75590110  0.37753583  0.66490500     0.35800
H1039       H  0.74754502  0.28504149  0.68447275     0.16200
O1040       O  0.80992578  0.29009426  0.71934688    -0.60700
H1041       H  0.80252748  0.41138059  0.68019486     0.16200
O1042       O  0.73868457  0.40628505  0.64668677    -0.60800
H1043       H  0.71985107  0.41571526  0.66435942     0.43200
H1044       H  0.82118391  0.27412809  0.69993626     0.43200
C1045       C  0.08336928  0.40679046  0.01188048    -0.05900
C1046       C  0.08832842  0.37219447  0.99451365    -0.33300
C1047       C  0.07150750  0.36461521  0.96014706     0.35900
C1048       C  0.04911932  0.39186844  0.94270635    -0.06300
C1049       C  0.04228911  0.42541029  0.96159087    -0.33200
C1050       C  0.05898117  0.43282850  0.99579817     0.35800
H1051       H  0.10725049  0.35195645  0.00630976     0.16200
O1052       O  0.07855965  0.33117840  0.94319499    -0.60700
H1053       H  0.02433340  0.44637425  0.94954725     0.16200
O1054       O  0.05247074  0.46641849  0.01262530    -0.60800
H1055       H  0.03373969  0.46119675  0.03206467     0.43200
H1056       H  0.10196409  0.33498181  0.92931326     0.43200
C1057       C  0.06084748  0.55008944  0.09767448    -0.05900
C1058       C  0.03591231  0.55708804  0.12706941    -0.33300
C1059       C  0.00196678  0.57528203  0.12082474     0.35900
C1060       C  0.99208106  0.58623732  0.08460984    -0.06300
C1061       C  0.01648310  0.57785377  0.05528318    -0.33200
C1062       C  0.05048601  0.56073173  0.06144604     0.35800
H1063       H  0.04305448  0.54928422  0.15523430     0.16200
O1064       O  0.98008467  0.58435447  0.15055666    -0.60700
H1065       H  0.01013317  0.58612608  0.02707549     0.16200
O1066       O  0.07428782  0.55691246  0.03198468    -0.60800
H1067       H  0.06366188  0.53691385  0.01634974     0.43200
H1068       H  0.96381397  0.56245362  0.15439579     0.43200
C1069       C  0.33720029  0.50556887  0.22530891    -0.05900
C1070       C  0.36693434  0.48279726  0.23630043    -0.33300
C1071       C  0.39828213  0.49847486  0.25333440     0.35900
C1072       C  0.40002604  0.53725959  0.25882704    -0.06300
C1073       C  0.36895542  0.55919050  0.25098210    -0.33200
C1074       C  0.33768785  0.54369306  0.23455799     0.35800
H1075       H  0.36686794  0.45338421  0.22962637     0.16200
O1076       O  0.42814129  0.47630598  0.26135405    -0.60700
H1077       H  0.36959065  0.58895094  0.25603550     0.16200
O1078       O  0.30785230  0.56618419  0.22703208    -0.60800
H1079       H  0.31545458  0.58180361  0.20561335     0.43200
H1080       H  0.42368618  0.46714486  0.28695526     0.43200
C1081       C  0.23128427  0.60136940  0.02947034    -0.05900
C1082       C  0.23597960  0.63375894  0.05070628    -0.33300
C1083       C  0.25420637  0.66469582  0.03604020     0.35900
C1084       C  0.26821910  0.66350837  0.99960297    -0.06300
C1085       C  0.26036387  0.63256804  0.97710202    -0.33200
C1086       C  0.24210294  0.60139502  0.99194515     0.35800
H1087       H  0.22783900  0.63403631  0.07967718     0.16200
O1088       O  0.26032703  0.69502937  0.05836086    -0.60700
H1089       H  0.27098555  0.63135641  0.94900162     0.16200
O1090       O  0.23900704  0.56971295  0.97098154    -0.60800
H1091       H  0.21349833  0.57033763  0.96083087     0.43200
H1092       H  0.24263940  0.71427368  0.04961968     0.43200
C1093       C  0.26490247  0.39660802  0.53650554    -0.05900
C1094       C  0.26083430  0.39595349  0.49766514    -0.33300
C1095       C  0.24527111  0.36469703  0.47993428     0.35900
C1096       C  0.23398272  0.33378467  0.50128218    -0.06300
C1097       C  0.24176692  0.33332083  0.53947419    -0.33200
C1098       C  0.25651816  0.36444994  0.55714270     0.35800
H1099       H  0.26711904  0.42060606  0.48147415     0.16200
O1100       O  0.23794470  0.36618195  0.44261569    -0.60700
H1101       H  0.23410056  0.30945788  0.55627268     0.16200
O1102       O  0.26165887  0.36365870  0.59491517    -0.60800
H1103       H  0.23644975  0.36439081  0.60581151     0.43200
H1104       H  0.26074193  0.35682574  0.43046749     0.43200
C1105       C  0.00410183  0.27103095  0.66230221    -0.05900
C1106       C  0.04225401  0.26375902  0.66190916    -0.33300
C1107       C  0.05876337  0.24593803  0.63189301     0.35900
C1108       C  0.03731187  0.23537675  0.60096675    -0.06300
C1109       C  0.99863788  0.23930742  0.60265536    -0.33200
C1110       C  0.98189190  0.25682619  0.63335150     0.35800
H1111       H  0.05975212  0.27337424  0.68440006     0.16200
O1112       O  0.09644324  0.24114882  0.63201210    -0.60700
H1113       H  0.98173140  0.23123796  0.57915876     0.16200
O1114       O  0.94442222  0.26279785  0.63313863    -0.60800
H1115       H  0.93375434  0.24121403  0.64660304     0.43200
H1116       H  0.10043724  0.21530162  0.64087901     0.43200
C1117       C  0.00810712  0.08644237  0.41031034    -0.05900
C1118       C  0.98786393  0.07053125  0.43962679    -0.33300
C1119       C  0.95269580  0.05546401  0.43411255     0.35900
C1120       C  0.93672107  0.05536544  0.39834081    -0.06300
C1121       C  0.95784737  0.06942479  0.36844822    -0.33200
C1122       C  0.99328182  0.08470247  0.37418771     0.35800
H1123       H  0.99877740  0.07108189  0.46760872     0.16200
O1124       O  0.93450490  0.04052579  0.46405739    -0.60700
H1125       H  0.94663773  0.06928684  0.34054952     0.16200
O1126       O  0.01193085  0.10000763  0.34474393    -0.60800
H1127       H  0.02593502  0.07906153  0.33360343     0.43200
H1128       H  0.92458874  0.06214417  0.47800210     0.43200
C1129       C  0.17233153  0.33253857  0.24007180    -0.05900
C1130       C  0.13530830  0.32837238  0.25109120    -0.33300
C1131       C  0.12639618  0.31284499  0.28581104     0.35900
C1132       C  0.15482515  0.30098844  0.31026031    -0.06300
C1133       C  0.19165347  0.30340173  0.29810570    -0.33200
C1134       C  0.20050618  0.31897008  0.26367946     0.35800
H1135       H  0.11324584  0.33901266  0.23366009     0.16200
O1136       O  0.08988394  0.31102974  0.29604506    -0.60700
H1137       H  0.21410683  0.29385141  0.31561922     0.16200
O1138       O  0.23701154  0.32090028  0.25333235    -0.60800
H1139       H  0.24857392  0.33918272  0.27038526     0.43200
H1140       H  0.08075778  0.28706543  0.28589990     0.43200
C1141       C  0.08382561  0.98755698  0.58034123    -0.05900
C1142       C  0.05488127  0.00749780  0.56344370    -0.33300
C1143       C  0.06099367  0.04216499  0.54699504     0.35900
C1144       C  0.09699016  0.05735090  0.54610379    -0.06300
C1145       C  0.12642191  0.03618439  0.56093469    -0.33200
C1146       C  0.12007588  0.00162818  0.57796807     0.35800
H1147       H  0.02681070  0.99701078  0.56466187     0.16200
O1148       O  0.03140251  0.06089069  0.53210570    -0.60700
H1149       H  0.15442045  0.04696523  0.56051042     0.16200
O1150       O  0.14899035  0.98351338  0.59481600    -0.60800
H1151       H  0.15942710  0.96702411  0.57538671     0.43200
H1152       H  0.01891690  0.07290153  0.55349209     0.43200
C1153       C  0.41631725  0.00849563  0.08350904    -0.05900
C1154       C  0.44507193  0.98415436  0.07331360    -0.33300
C1155       C  0.43789387  0.94904361  0.05862526     0.35900
C1156       C  0.40108069  0.93757063  0.05205636    -0.06300
C1157       C  0.37215508  0.96251564  0.06078937    -0.33200
C1158       C  0.37951264  0.99757200  0.07657617     0.35800
H1159       H  0.47369201  0.99161850  0.07828649     0.16200
O1160       O  0.46741760  0.92621550  0.05111592    -0.60700
H1161       H  0.34360522  0.95464878  0.05603582     0.16200
O1162       O  0.35048817  0.01970352  0.08725012    -0.60800
H1163       H  0.34373684  0.03415290  0.06476169     0.43200
H1164       H  0.47348138  0.91397445  0.07506885     0.43200
C1165       C  0.30914372  0.14709259  0.29766512    -0.05900
C1166       C  0.29371700  0.18292909  0.29560333    -0.33300
C1167       C  0.25904830  0.19068597  0.31087217     0.35900
C1168       C  0.23918640  0.16275750  0.32981879    -0.06300
C1169       C  0.25344712  0.12642865  0.33052221    -0.33200
C1170       C  0.28811456  0.11842961  0.31467372     0.35800
H1171       H  0.30872571  0.20534597  0.28237681     0.16200
O1172       O  0.24534764  0.22622013  0.30834469    -0.60700
H1173       H  0.23880258  0.10468477  0.34535853     0.16200
O1174       O  0.30157746  0.08280396  0.31723339    -0.60800
H1175       H  0.31631349  0.08230881  0.34047190     0.43200
H1176       H  0.23125957  0.22680974  0.28470722     0.43200
C1177       C  0.33468195  0.24030673  0.16121915    -0.05900
C1178       C  0.33529241  0.25416437  0.12477263    -0.33300
C1179       C  0.32021505  0.28930348  0.11644851     0.35900
C1180       C  0.30413663  0.31120809  0.14489638    -0.06300
C1181       C  0.30149309  0.29592543  0.18068844    -0.33200
C1182       C  0.31629560  0.26094989  0.18887386     0.35800
H1183       H  0.34938523  0.23876532  0.10312584     0.16200
O1184       O  0.32226319  0.30217178  0.08063802    -0.60700
H1185       H  0.28816427  0.31125808  0.20278544     0.16200
O1186       O  0.31272269  0.24707173  0.22419330    -0.60800
H1187       H  0.32998312  0.26187832  0.23970100     0.43200
H1188       H  0.34600343  0.31595350  0.07923146     0.43200
C1189       C  0.55086286  0.10096548  0.05933964    -0.05900
C1190       C  0.56644501  0.13005572  0.03816428    -0.33300
C1191       C  0.58286797  0.12302426  0.00352203     0.35900
C1192       C  0.58410600  0.08639203  0.98959898    -0.06300
C1193       C  0.56666373  0.05786062  0.00970638    -0.33200
C1194       C  0.55027272  0.06474283  0.04406663     0.35800
H1195       H  0.56679817  0.15823192  0.04886954     0.16200
O1196       O  0.59976314  0.15167838  0.98488415    -0.60700
H1197       H  0.56666100  0.02957473  0.99921322     0.16200
O1198       O  0.53326409  0.03575765  0.06210162    -0.60800
H1199       H  0.55340125  0.02239163  0.07529540     0.43200
H1200       H  0.58075437  0.16125187  0.96743701     0.43200
C1201       C  0.48749680  0.21846603  0.34836990    -0.05900
C1202       C  0.49185295  0.19742089  0.38078601    -0.33300
C1203       C  0.50823488  0.21282810  0.41226224     0.35900
C1204       C  0.52038580  0.25014634  0.41189368    -0.06300
C1205       C  0.51339170  0.27223128  0.38036756    -0.33200
C1206       C  0.49711712  0.25647162  0.34851231     0.35800
H1207       H  0.48442142  0.16816104  0.38101132     0.16200
O1208       O  0.51327442  0.19084389  0.44308315    -0.60700
H1209       H  0.52294093  0.30081689  0.37947065     0.16200
O1210       O  0.49421405  0.27729059  0.31670076    -0.60800
H1211       H  0.46943607  0.28909075  0.31803156     0.43200
H1212       H  0.53350175  0.17335628  0.43650511     0.43200
C1213       C  0.59670306  0.02875837  0.24025599    -0.05900
C1214       C  0.59469997  0.99166481  0.25257343    -0.33300
C1215       C  0.62537547  0.97498396  0.26999523     0.35900
C1216       C  0.65796616  0.99579606  0.27533250    -0.06300
C1217       C  0.66053373  0.03180903  0.26057123    -0.33200
C1218       C  0.63027046  0.04825317  0.24308758     0.35800
H1219       H  0.56876367  0.97660916  0.25095837     0.16200
O1220       O  0.62207908  0.93992718  0.28477301    -0.60700
H1221       H  0.68562755  0.04795273  0.26422137     0.16200
O1222       O  0.63320825  0.08405189  0.23001143    -0.60800
H1223       H  0.62939900  0.10022183  0.25198290     0.43200
H1224       H  0.62880879  0.92278554  0.26429411     0.43200
loop_ 
_geom_bond_atom_site_label_1 
_geom_bond_atom_site_label_2 
_geom_bond_distance 
_geom_bond_site_symmetry_2 
_ccdc_geom_bond_type 
Zr1           O2   2.441       .  S
Zr1           O3   2.432       .  S
Zr1           O4   2.396       .  S
Zr1           O7   2.436       .  S
Zr1           O9   2.380       .  S
Zr1          O10   2.374       .  S
Zr1          O11   2.410       .  S
Zr1          O12   2.399       .  S
O2           H58   0.990   1_545  S
O2           H66   0.991   1_545  S
O3           C23   1.284       .  A
O4           C25   1.279       .  A
O5          Zr15   2.417       .  S
O5           C24   1.282       .  A
O6          Zr14   2.473       .  S
O6           C25   1.292       .  A
O7           C24   1.283       .  A
O8          Zr16   2.432       .  S
O8           C23   1.283       .  A
O9          Zr14   2.392       .  S
O9          Zr16   2.374       .  S
O10         Zr15   2.391       .  S
O10         Zr16   2.375       .  S
O10          H45   0.966       .  S
O11         Zr14   2.410       .  S
O11         Zr31   2.381       .  S
O11          H48   0.965       .  S
O12         Zr15   2.383       .  S
O12         Zr31   2.402       .  S
Zr13         O38   2.438       .  S
Zr13         O32   2.447       .  S
Zr13         O40   2.446       .  S
Zr13         O28   2.408       .  S
Zr13         O19   2.398       .  S
Zr13         O20   2.413       .  S
Zr13         O21   2.379       .  S
Zr13         O22   2.376       .  S
Zr14         O33   2.436       .  S
Zr14         O26   2.435       .  S
Zr14         O27   2.467       .  S
Zr14         O20   2.413       .  S
Zr14         O21   2.392       .  S
Zr15         O17   2.435       .  S
Zr15         O39   2.437       .  S
Zr15         O41   2.409       .  S
Zr15         O19   2.382       .  S
Zr15         O22   2.391       .  S
Zr16         O42   2.437       .  S
Zr16         O43   2.437       .  S
Zr16         O18   2.437       .  S
Zr16         O19   2.402       .  S
Zr16         O20   2.387       .  S
O17          H54   0.990       .  S
O18          H49   0.990       .  S
O18          H63   0.990       .  S
O20          H46   0.964       .  S
O21         Zr31   2.375       .  S
O22         Zr31   2.374       .  S
O22          H47   0.965       .  S
C23        C1189   1.490       .  S
C24        C1213   1.467       .  S
C25        C1153   1.486       .  S
O26          H62   0.990       .  S
O27          C29   1.291       .  A
O28          C29   1.281       .  A
C29        C1177   1.480       .  S
O30         Zr31   2.440       .  S
O30          H59   0.990       .  S
Zr31         O34   2.437       .  S
Zr31         O35   2.443       .  S
Zr31         O36   2.426       .  S
O32          C37   1.289       .  A
O33          H50   0.990       .  S
O33          H65   0.990       .  S
O34          H51   0.990       .  S
O35          H55   0.990       .  S
O35          H64   0.990       .  S
O36          C37   1.282       .  A
C37        C1165   1.493       .  S
O38          H57   0.990       .  S
O38          H61   0.990       .  S
O39          H53   0.990       .  S
O39          H60   0.990       .  S
O40          C44   1.286       .  A
O41          C44   1.281       .  A
O42          H52   0.990       .  S
O43          H56   0.990       .  S
C44        C1201   1.470       .  S
Zr67         O68   2.440       .  S
Zr67         O69   2.436       .  S
Zr67         O70   2.403       .  S
Zr67         O73   2.454       .  S
Zr67         O75   2.385       .  S
Zr67         O76   2.377       .  S
Zr67         O77   2.414       .  S
Zr67         O78   2.401       .  S
O68         H124   0.990   1_455  S
O68         H132   0.991   1_455  S
O69          C89   1.286       .  A
O70          C91   1.280       .  A
O71         Zr81   2.409       .  S
O71          C90   1.281       .  A
O72         Zr80   2.474       .  S
O72          C91   1.292       .  A
O73          C90   1.288       .  A
O74         Zr82   2.421       .  S
O74          C89   1.282       .  A
O75         Zr80   2.393       .  S
O75         Zr82   2.373       .  S
O76         Zr81   2.390       .  S
O76         Zr82   2.369       .  S
O76         H111   0.967       .  S
O77         Zr80   2.410       .  S
O77         Zr97   2.392       .  S
O77         H114   0.965       .  S
O78         Zr81   2.381       .  S
O78         Zr97   2.404       .  S
Zr79        O104   2.440       .  S
Zr79         O98   2.435       .  S
Zr79        O106   2.455       .  S
Zr79         O94   2.409       .  S
Zr79         O85   2.398       .  S
Zr79         O86   2.415       .  S
Zr79         O87   2.381       .  S
Zr79         O88   2.376       .  S
Zr80         O99   2.437       .  S
Zr80         O92   2.435       .  S
Zr80         O93   2.469       .  S
Zr80         O86   2.414       .  S
Zr80         O87   2.388       .  S
Zr81         O83   2.434       .  S
Zr81        O105   2.439       .  S
Zr81        O107   2.400       .  S
Zr81         O85   2.387       .  S
Zr81         O88   2.387       .  S
Zr82        O108   2.436       .  S
Zr82        O109   2.435       .  S
Zr82         O84   2.438       .  S
Zr82         O85   2.396       .  S
Zr82         O86   2.383       .  S
O83         H120   0.990       .  S
O84         H115   0.991       .  S
O84         H129   0.990       .  S
O86         H112   0.965       .  S
O87         Zr97   2.372       .  S
O88         Zr97   2.375       .  S
O88         H113   0.965       .  S
C89        C1144   1.488       .  S
C90        C1108   1.478       .  S
C91        C1117   1.486       .  S
O92         H128   0.990       .  S
O93          C95   1.292       .  A
O94          C95   1.281       .  A
C95        C1168   1.479       .  S
O96         Zr97   2.436       .  S
O96         H125   0.990       .  S
Zr97        O100   2.435       .  S
Zr97        O101   2.439       .  S
Zr97        O102   2.424       .  S
O98         C103   1.286       .  A
O99         H116   0.990       .  S
O99         H131   0.990       .  S
O100        H117   0.990       .  S
O101        H121   0.990       .  S
O101        H130   0.990       .  S
O102        C103   1.281       .  A
C103       C1132   1.492       .  S
O104        H123   0.990       .  S
O104        H127   0.991       .  S
O105        H119   0.990       .  S
O105        H126   0.990       .  S
O106        C110   1.287       .  A
O107        C110   1.280       .  A
O108        H118   0.990       .  S
O109        H122   0.990       .  S
C110       C1096   1.479       .  S
Zr133       O134   2.440       .  S
Zr133       O135   2.445       .  S
Zr133       O136   2.404       .  S
Zr133       O139   2.441       .  S
Zr133       O141   2.375       .  S
Zr133       O142   2.375       .  S
Zr133       O143   2.415       .  S
Zr133       O144   2.399       .  S
O134        H190   0.989       .  S
O134        H198   0.991       .  S
O135        C155   1.288       .  A
O136        C157   1.280       .  A
O137       Zr147   2.403       .  S
O137        C156   1.280       .  A
O138       Zr146   2.478       .  S
O138        C157   1.293       .  A
O139        C156   1.285       .  A
O140       Zr148   2.424       .  S
O140        C155   1.282       .  A
O141       Zr146   2.387       .  S
O141       Zr148   2.377       .  S
O142       Zr147   2.387       .  S
O142       Zr148   2.374       .  S
O142        H177   0.966       .  S
O143       Zr146   2.410       .  S
O143       Zr163   2.385       .  S
O143        H180   0.965       .  S
O144       Zr147   2.382       .  S
O144       Zr163   2.395       .  S
Zr145       O170   2.444   1_554  S
Zr145       O164   2.427       .  S
Zr145       O172   2.455       .  S
Zr145       O160   2.414       .  S
Zr145       O151   2.397       .  S
Zr145       O152   2.408       .  S
Zr145       O153   2.383       .  S
Zr145       O154   2.372       .  S
Zr146       O165   2.435       .  S
Zr146       O158   2.435       .  S
Zr146       O159   2.460       .  S
Zr146       O152   2.413       .  S
Zr146       O153   2.393       .  S
Zr147       O149   2.436       .  S
Zr147       O171   2.435       .  S
Zr147       O173   2.404       .  S
Zr147       O151   2.382       .  S
Zr147       O154   2.385       .  S
Zr148       O174   2.437       .  S
Zr148       O175   2.436       .  S
Zr148       O150   2.437       .  S
Zr148       O151   2.399       .  S
Zr148       O152   2.393       .  S
O149        H186   0.990       .  S
O150        H181   0.990       .  S
O150        H195   0.990       .  S
O152        H178   0.964       .  S
O153       Zr163   2.376       .  S
O154       Zr163   2.368       .  S
O154        H179   0.967       .  S
C155       C1180   1.490       .  S
C156       C1069   1.475       .  S
C157       C1129   1.485       .  S
O158        H194   0.990       .  S
O159        C161   1.290       .  A
O160        C161   1.282       .  A
C161       C1045   1.479       .  S
O162       Zr163   2.439       .  S
O162        H191   0.990       .  S
Zr163       O166   2.437       .  S
Zr163       O167   2.442       .  S
Zr163       O168   2.425       .  S
O164        C169   1.285       .  A
O165        H182   0.990       .  S
O165        H197   0.990       .  S
O166        H183   0.990       .  S
O167        H187   0.990       .  S
O167        H196   0.990       .  S
O168        C169   1.282       .  A
C169       C1057   1.490       .  S
O170        H189   0.990       .  S
O170        H193   0.990       .  S
O171        H185   0.990       .  S
O171        H192   0.990       .  S
O172        C176   1.288       .  A
O173        C176   1.280       .  A
O174        H184   0.990       .  S
O175        H188   0.990       .  S
C176       C1081   1.470       .  S
Zr199       O200   2.441       .  S
Zr199       O201   2.447       .  S
Zr199       O202   2.400       .  S
Zr199       O205   2.448       .  S
Zr199       O207   2.378       .  S
Zr199       O208   2.373       .  S
Zr199       O209   2.420       .  S
Zr199       O210   2.403       .  S
O200        H256   0.990       .  S
O200        H264   0.991       .  S
O201        C221   1.287       .  A
O202        C223   1.279       .  A
O203       Zr213   2.409       .  S
O203        C222   1.281   1_455  A
O204       Zr212   2.489       .  S
O204        C223   1.295       .  A
O205        C222   1.285       .  A
O206       Zr214   2.430       .  S
O206        C221   1.283       .  A
O207       Zr212   2.395       .  S
O207       Zr214   2.378       .  S
O208       Zr213   2.393   1_655  S
O208       Zr214   2.378       .  S
O208        H243   0.966       .  S
O209       Zr212   2.412       .  S
O209       Zr229   2.384   1_655  S
O209        H246   0.965       .  S
O210       Zr213   2.386   1_655  S
O210       Zr229   2.402   1_655  S
Zr211       O236   2.439       .  S
Zr211       O230   2.438   1_655  S
Zr211       O238   2.461   1_655  S
Zr211       O226   2.401       .  S
Zr211       O217   2.400       .  S
Zr211       O218   2.418       .  S
Zr211       O219   2.383       .  S
Zr211       O220   2.371   1_655  S
Zr212       O231   2.435       .  S
Zr212       O224   2.435       .  S
Zr212       O225   2.476       .  S
Zr212       O218   2.416       .  S
Zr212       O219   2.394       .  S
Zr213       O215   2.433       .  S
Zr213       O237   2.435       .  S
Zr213       O239   2.417       .  S
Zr213       O217   2.382   1_455  S
Zr213       O220   2.390       .  S
Zr214       O240   2.436       .  S
Zr214       O241   2.436       .  S
Zr214       O216   2.438       .  S
Zr214       O217   2.406       .  S
Zr214       O218   2.389       .  S
O215        H252   0.990       .  S
O216        H247   0.990       .  S
O216        H261   0.990       .  S
O218        H244   0.965       .  S
O219       Zr229   2.372   1_655  S
O220       Zr229   2.369       .  S
O220        H245   0.965       .  S
C221       C1036   1.495       .  S
C222       C1105   1.482   1_655  S
C223       C1012   1.499       .  S
O224        H260   0.990       .  S
O225        C227   1.294       .  A
O226        C227   1.280       .  A
C227       C1021   1.484       .  S
O228       Zr229   2.440       .  S
O228        H257   0.990       .  S
Zr229       O232   2.439   1_455  S
Zr229       O233   2.444       .  S
Zr229       O234   2.430       .  S
O230        C235   1.286       .  A
O231        H248   0.990       .  S
O231        H263   0.990       .  S
O232        H249   0.990       .  S
O233        H253   0.990       .  S
O233        H262   0.990       .  S
O234        C235   1.282       .  A
C235       C1048   1.490       .  S
O236        H255   0.990       .  S
O236        H259   0.991   1_655  S
O237        H251   0.990       .  S
O237        H258   0.990       .  S
O238        C242   1.289       .  A
O239        C242   1.282       .  A
O240        H250   0.990       .  S
O241        H254   0.990       .  S
C242        C997   1.481       .  S
Zr265       O266   2.441       .  S
Zr265       O267   2.435       .  S
Zr265       O268   2.403       .  S
Zr265       O271   2.440       .  S
Zr265       O273   2.380       .  S
Zr265       O274   2.373       .  S
Zr265       O275   2.413       .  S
Zr265       O276   2.395       .  S
O266        H322   0.990       .  S
O266        H330   0.991       .  S
O267        C287   1.285       .  A
O268        C289   1.280       .  A
O269       Zr279   2.408       .  S
O269        C288   1.281   1_545  A
O270       Zr278   2.480       .  S
O270        C289   1.293       .  A
O271        C288   1.285       .  A
O272       Zr280   2.419       .  S
O272        C287   1.281       .  A
O273       Zr278   2.389       .  S
O273       Zr280   2.376       .  S
O274       Zr279   2.388   1_565  S
O274       Zr280   2.373       .  S
O274        H309   0.966       .  S
O275       Zr278   2.408       .  S
O275       Zr295   2.393   1_565  S
O275        H312   0.965       .  S
O276       Zr279   2.380   1_565  S
O276       Zr295   2.397   1_565  S
Zr277       O302   2.440   1_565  S
Zr277       O296   2.442   1_565  S
Zr277       O304   2.461   1_565  S
Zr277       O292   2.410       .  S
Zr277       O283   2.398       .  S
Zr277       O284   2.418       .  S
Zr277       O285   2.381       .  S
Zr277       O286   2.373   1_565  S
Zr278       O297   2.436       .  S
Zr278       O290   2.434       .  S
Zr278       O291   2.469       .  S
Zr278       O284   2.415       .  S
Zr278       O285   2.394       .  S
Zr279       O281   2.434       .  S
Zr279       O303   2.440       .  S
Zr279       O305   2.406       .  S
Zr279       O283   2.382   1_545  S
Zr279       O286   2.392       .  S
Zr280       O306   2.436       .  S
Zr280       O307   2.435       .  S
Zr280       O282   2.437       .  S
Zr280       O283   2.398       .  S
Zr280       O284   2.384       .  S
O281        H318   0.990       .  S
O282        H313   0.991       .  S
O282        H327   0.990       .  S
O284        H310   0.965       .  S
O285       Zr295   2.372   1_565  S
O286       Zr295   2.380       .  S
O286        H311   0.965       .  S
C287        C949   1.486       .  S
C288       C1216   1.468       .  S
C289        C961   1.491       .  S
O290        H326   0.990       .  S
O291        C293   1.292       .  A
O292        C293   1.282       .  A
C293        C976   1.486       .  S
O294       Zr295   2.440       .  S
O294        H323   0.990       .  S
Zr295       O298   2.437   1_545  S
Zr295       O299   2.443       .  S
Zr295       O300   2.429       .  S
O296        C301   1.287       .  A
O297        H314   0.990       .  S
O297        H329   0.990       .  S
O298        H315   0.990   1_565  S
O299        H319   0.990       .  S
O299        H328   0.990       .  S
O300        C301   1.283       .  A
C301       C1120   1.493       .  S
O302        H321   0.990   1_545  S
O302        H325   0.990       .  S
O303        H317   0.990       .  S
O303        H324   0.990   1_545  S
O304        C308   1.289       .  A
O305        C308   1.281       .  A
O306        H316   0.990       .  S
O307        H320   0.990       .  S
C308        C985   1.484       .  S
Zr331       O332   2.440       .  S
Zr331       O333   2.429       .  S
Zr331       O334   2.413       .  S
Zr331       O337   2.440       .  S
Zr331       O339   2.377       .  S
Zr331       O340   2.375       .  S
Zr331       O341   2.417       .  S
Zr331       O342   2.402       .  S
O332        H388   0.990       .  S
O332        H396   0.991       .  S
O333        C353   1.283       .  A
O334        C355   1.281       .  A
O335       Zr345   2.409       .  S
O335        C354   1.281   1_655  A
O336       Zr344   2.465       .  S
O336        C355   1.290       .  A
O337        C354   1.284       .  A
O338       Zr346   2.423       .  S
O338        C353   1.281       .  A
O339       Zr344   2.393       .  S
O339       Zr346   2.379       .  S
O340       Zr345   2.394   1_455  S
O340       Zr346   2.378       .  S
O340        H375   0.965       .  S
O341       Zr344   2.411       .  S
O341       Zr361   2.390   1_455  S
O341        H378   0.964       .  S
O342       Zr345   2.384   1_455  S
O342       Zr361   2.402   1_455  S
Zr343       O368   2.445       .  S
Zr343       O362   2.430   1_455  S
Zr343       O370   2.443   1_455  S
Zr343       O358   2.398       .  S
Zr343       O349   2.394       .  S
Zr343       O350   2.407       .  S
Zr343       O351   2.380       .  S
Zr343       O352   2.372   1_455  S
Zr344       O363   2.436       .  S
Zr344       O356   2.435       .  S
Zr344       O357   2.458       .  S
Zr344       O350   2.413       .  S
Zr344       O351   2.387       .  S
Zr345       O347   2.436       .  S
Zr345       O369   2.438       .  S
Zr345       O371   2.414       .  S
Zr345       O349   2.387   1_655  S
Zr345       O352   2.385       .  S
Zr346       O372   2.438       .  S
Zr346       O373   2.435       .  S
Zr346       O348   2.437       .  S
Zr346       O349   2.400       .  S
Zr346       O350   2.392       .  S
O347        H384   0.990       .  S
O348        H379   0.990       .  S
O348        H393   0.990       .  S
O350        H376   0.965       .  S
O351       Zr361   2.372   1_455  S
O352       Zr361   2.372       .  S
O352        H377   0.966       .  S
C353        C937   1.488       .  S
C354        C901   1.472   1_455  S
C355        C925   1.482       .  S
O356        H392   0.990       .  S
O357        C359   1.290       .  A
O358        C359   1.279       .  A
C359       C1141   1.478       .  S
O360       Zr361   2.440       .  S
O360        H389   0.990       .  S
Zr361       O364   2.436   1_655  S
Zr361       O365   2.444       .  S
Zr361       O366   2.440       .  S
O362        C367   1.285       .  A
O363        H380   0.990       .  S
O363        H395   0.990       .  S
O364        H381   0.990       .  S
O365        H385   0.990       .  S
O365        H394   0.990       .  S
O366        C367   1.285       .  A
C367        C973   1.496       .  S
O368        H387   0.991   1_565  S
O368        H391   0.990   1_565  S
O369        H383   0.990       .  S
O369        H390   0.990       .  S
O370        C374   1.285       .  A
O371        C374   1.282       .  A
O372        H382   0.990       .  S
O373        H386   0.990       .  S
C374        C913   1.469       .  S
Zr397       O398   2.442       .  S
Zr397       O399   2.438       .  S
Zr397       O400   2.390       .  S
Zr397       O403   2.433       .  S
Zr397       O405   2.374       .  S
Zr397       O406   2.371       .  S
Zr397       O407   2.415       .  S
Zr397       O408   2.398       .  S
O398        H454   0.990       .  S
O398        H462   0.991       .  S
O399        C419   1.285       .  A
O400        C421   1.277       .  A
O401       Zr411   2.422       .  S
O401        C420   1.283   1_554  A
O402       Zr410   2.474       .  S
O402        C421   1.291       .  A
O403        C420   1.283       .  A
O404       Zr412   2.421       .  S
O404        C419   1.282       .  A
O405       Zr410   2.393       .  S
O405       Zr412   2.377       .  S
O406       Zr411   2.392   1_556  S
O406       Zr412   2.379       .  S
O406        H441   0.965       .  S
O407       Zr410   2.409       .  S
O407       Zr427   2.392   1_556  S
O407        H444   0.966       .  S
O408       Zr411   2.382   1_556  S
O408       Zr427   2.401   1_556  S
Zr409       O434   2.446       .  S
Zr409       O428   2.425   1_556  S
Zr409       O436   2.444   1_556  S
Zr409       O424   2.413       .  S
Zr409       O415   2.393       .  S
Zr409       O416   2.405       .  S
Zr409       O417   2.376       .  S
Zr409       O418   2.377   1_556  S
Zr410       O429   2.435       .  S
Zr410       O422   2.434       .  S
Zr410       O423   2.457       .  S
Zr410       O416   2.414       .  S
Zr410       O417   2.386       .  S
Zr411       O413   2.435       .  S
Zr411       O435   2.437       .  S
Zr411       O437   2.415       .  S
Zr411       O415   2.382   1_554  S
Zr411       O418   2.391       .  S
Zr412       O438   2.437       .  S
Zr412       O439   2.438       .  S
Zr412       O414   2.437       .  S
Zr412       O415   2.393       .  S
Zr412       O416   2.392       .  S
O413        H450   0.990       .  S
O414        H445   0.990       .  S
O414        H459   0.990       .  S
O416        H442   0.965       .  S
O417       Zr427   2.369   1_556  S
O418       Zr427   2.379       .  S
O418        H443   0.965       .  S
C419        C889   1.488       .  S
C420       C1084   1.474       .  S
C421        C940   1.490       .  S
O422        H458   0.990       .  S
O423        C425   1.290       .  A
O424        C425   1.282       .  A
C425        C880   1.478       .  S
O426       Zr427   2.440       .  S
O426        H455   0.990       .  S
Zr427       O430   2.438   1_554  S
Zr427       O431   2.442       .  S
Zr427       O432   2.435       .  S
O428        C433   1.284       .  A
O429        H446   0.990       .  S
O429        H461   0.990       .  S
O430        H447   0.990   1_556  S
O431        H451   0.990       .  S
O431        H460   0.990       .  S
O432        C433   1.284       .  A
C433       C1156   1.492       .  S
O434        H453   0.990       .  S
O434        H457   0.990       .  S
O435        H449   0.990   1_554  S
O435        H456   0.990       .  S
O436        C440   1.286       .  A
O437        C440   1.282       .  A
O438        H448   0.990       .  S
O439        H452   0.990       .  S
C440        C865   1.477       .  S
Zr463       O464   2.440       .  S
Zr463       O465   2.439       .  S
Zr463       O466   2.409       .  S
Zr463       O469   2.459       .  S
Zr463       O471   2.381       .  S
Zr463       O472   2.376       .  S
Zr463       O473   2.421       .  S
Zr463       O474   2.400       .  S
O464        H520   0.991       .  S
O464        H528   0.990       .  S
O465        C485   1.286       .  A
O466        C487   1.281       .  A
O467       Zr477   2.416       .  S
O467        C486   1.282       .  A
O468       Zr476   2.471       .  S
O468        C487   1.292       .  A
O469        C486   1.288       .  A
O470       Zr478   2.428       .  S
O470        C485   1.282       .  A
O471       Zr476   2.394       .  S
O471       Zr478   2.370       .  S
O472       Zr477   2.397       .  S
O472       Zr478   2.379       .  S
O472        H507   0.965       .  S
O473       Zr476   2.416       .  S
O473       Zr493   2.384       .  S
O473        H510   0.965       .  S
O474       Zr477   2.382       .  S
O474       Zr493   2.400       .  S
Zr475       O500   2.446       .  S
Zr475       O494   2.442       .  S
Zr475       O502   2.444       .  S
Zr475       O490   2.393       .  S
Zr475       O481   2.398       .  S
Zr475       O482   2.408       .  S
Zr475       O483   2.379       .  S
Zr475       O484   2.371       .  S
Zr476       O495   2.435       .  S
Zr476       O488   2.436       .  S
Zr476       O489   2.486       .  S
Zr476       O482   2.407       .  S
Zr476       O483   2.386       .  S
Zr477       O479   2.435       .  S
Zr477       O501   2.436       .  S
Zr477       O503   2.421       .  S
Zr477       O481   2.387       .  S
Zr477       O484   2.384       .  S
Zr478       O504   2.436       .  S
Zr478       O505   2.435       .  S
Zr478       O480   2.439       .  S
Zr478       O481   2.405       .  S
Zr478       O482   2.389       .  S
O479        H516   0.990       .  S
O480        H511   0.990       .  S
O480        H525   0.990       .  S
O482        H508   0.964       .  S
O483       Zr493   2.372       .  S
O484       Zr493   2.372       .  S
O484        H509   0.964       .  S
C485        C928   1.492       .  S
C486       C1000   1.488       .  S
C487        C892   1.480       .  S
O488        H524   0.990       .  S
O489        C491   1.295       .  A
O490        C491   1.279       .  A
C491        C853   1.497       .  S
O492       Zr493   2.440       .  S
O492        H521   0.990       .  S
Zr493       O496   2.438       .  S
Zr493       O497   2.442       .  S
Zr493       O498   2.432       .  S
O494        C499   1.288       .  A
O495        H512   0.990       .  S
O495        H527   0.990       .  S
O496        H513   0.990       .  S
O497        H517   0.990       .  S
O497        H526   0.989       .  S
O498        C499   1.284       .  A
C499        C841   1.494       .  S
O500        H519   0.990       .  S
O500        H523   0.990       .  S
O501        H515   0.990       .  S
O501        H522   0.990       .  S
O502        C506   1.285       .  A
O503        C506   1.284       .  A
O504        H514   0.990       .  S
O505        H518   0.990       .  S
C506       C1093   1.475       .  S
Zr529       O530   2.440       .  S
Zr529       O531   2.441       .  S
Zr529       O532   2.405       .  S
Zr529       O535   2.439       .  S
Zr529       O537   2.378       .  S
Zr529       O538   2.375       .  S
Zr529       O539   2.408       .  S
Zr529       O540   2.401       .  S
O530        H586   0.990       .  S
O530        H594   0.991       .  S
O531        C551   1.287       .  A
O532        C553   1.280       .  A
O533       Zr543   2.413       .  S
O533        C552   1.283       .  A
O534       Zr542   2.466       .  S
O534        C553   1.291       .  A
O535        C552   1.285       .  A
O536       Zr544   2.438       .  S
O536        C551   1.285       .  A
O537       Zr542   2.391       .  S
O537       Zr544   2.376       .  S
O538       Zr543   2.393       .  S
O538       Zr544   2.367       .  S
O538        H573   0.966       .  S
O539       Zr542   2.407       .  S
O539       Zr559   2.383       .  S
O539        H576   0.965       .  S
O540       Zr543   2.386       .  S
O540       Zr559   2.403       .  S
Zr541       O566   2.444       .  S
Zr541       O560   2.435       .  S
Zr541       O568   2.450       .  S
Zr541       O556   2.402       .  S
Zr541       O547   2.398       .  S
Zr541       O548   2.412       .  S
Zr541       O549   2.380       .  S
Zr541       O550   2.375       .  S
Zr542       O561   2.435       .  S
Zr542       O554   2.434       .  S
Zr542       O555   2.461       .  S
Zr542       O548   2.408       .  S
Zr542       O549   2.387       .  S
Zr543       O545   2.434       .  S
Zr543       O567   2.436       .  S
Zr543       O569   2.421       .  S
Zr543       O547   2.382       .  S
Zr543       O550   2.388       .  S
Zr544       O570   2.436       .  S
Zr544       O571   2.435       .  S
Zr544       O546   2.436       .  S
Zr544       O547   2.405       .  S
Zr544       O548   2.389       .  S
O545        H582   0.990       .  S
O546        H577   0.990       .  S
O546        H591   0.990       .  S
O548        H574   0.965       .  S
O549       Zr559   2.373       .  S
O550       Zr559   2.369       .  S
O550        H575   0.964       .  S
C551        C856   1.500       .  S
C552       C1072   1.470       .  S
C553        C820   1.482       .  S
O554        H590   0.990       .  S
O555        C557   1.291       .  A
O556        C557   1.281       .  A
C557        C952   1.479       .  S
O558       Zr559   2.436       .  S
O558        H587   0.990       .  S
Zr559       O562   2.437       .  S
Zr559       O563   2.442       .  S
Zr559       O564   2.434       .  S
O560        C565   1.286       .  A
O561        H578   0.990       .  S
O561        H593   0.990       .  S
O562        H579   0.990       .  S
O563        H583   0.990       .  S
O563        H592   0.990       .  S
O564        C565   1.284       .  A
C565        C829   1.494       .  S
O566        H585   0.990       .  S
O566        H589   0.990       .  S
O567        H581   0.990       .  S
O567        H588   0.990       .  S
O568        C572   1.287       .  A
O569        C572   1.284       .  A
O570        H580   0.990       .  S
O571        H584   0.990       .  S
C572        C868   1.473       .  S
Zr595       O596   2.438       .  S
Zr595       O597   2.439       .  S
Zr595       O598   2.404       .  S
Zr595       O601   2.448       .  S
Zr595       O603   2.383       .  S
Zr595       O604   2.374       .  S
Zr595       O605   2.414       .  S
Zr595       O606   2.397       .  S
O596        H652   0.990       .  S
O596        H660   0.990       .  S
O597        C617   1.286       .  A
O598        C619   1.280       .  A
O599       Zr609   2.409       .  S
O599        C618   1.281       .  A
O600       Zr608   2.478       .  S
O600        C619   1.293       .  A
O601        C618   1.286       .  A
O602       Zr610   2.425       .  S
O602        C617   1.282       .  A
O603       Zr608   2.393       .  S
O603       Zr610   2.373       .  S
O604       Zr609   2.389       .  S
O604       Zr610   2.371       .  S
O604        H639   0.967       .  S
O605       Zr608   2.410       .  S
O605       Zr625   2.390       .  S
O605        H642   0.965       .  S
O606       Zr609   2.384       .  S
O606       Zr625   2.399       .  S
Zr607       O632   2.440       .  S
Zr607       O626   2.439       .  S
Zr607       O634   2.456       .  S
Zr607       O622   2.412       .  S
Zr607       O613   2.400       .  S
Zr607       O614   2.420       .  S
Zr607       O615   2.380       .  S
Zr607       O616   2.374       .  S
Zr608       O627   2.435       .  S
Zr608       O620   2.434       .  S
Zr608       O621   2.475       .  S
Zr608       O614   2.415       .  S
Zr608       O615   2.387       .  S
Zr609       O611   2.434       .  S
Zr609       O633   2.439       .  S
Zr609       O635   2.407       .  S
Zr609       O613   2.381       .  S
Zr609       O616   2.394       .  S
Zr610       O636   2.439       .  S
Zr610       O637   2.436       .  S
Zr610       O612   2.437       .  S
Zr610       O613   2.400       .  S
Zr610       O614   2.385       .  S
O611        H648   0.990       .  S
O612        H643   0.990       .  S
O612        H657   0.990       .  S
O614        H640   0.964       .  S
O615       Zr625   2.373       .  S
O616       Zr625   2.381       .  S
O616        H641   0.965       .  S
C617        C805   1.492       .  S
C618        C988   1.474       .  S
C619       C1033   1.486       .  S
O620        H656   0.990       .  S
O621        C623   1.294       .  A
O622        C623   1.281       .  A
C623        C844   1.483       .  S
O624       Zr625   2.438       .  S
O624        H653   0.990       .  S
Zr625       O628   2.438       .  S
Zr625       O629   2.440       .  S
Zr625       O630   2.432       .  S
O626        C631   1.287       .  A
O627        H644   0.990       .  S
O627        H659   0.990       .  S
O628        H645   0.990       .  S
O629        H649   0.990       .  S
O629        H658   0.990       .  S
O630        C631   1.283       .  A
C631        C817   1.493       .  S
O632        H651   0.990       .  S
O632        H655   0.991       .  S
O633        H647   0.990       .  S
O633        H654   0.990       .  S
O634        C638   1.288       .  A
O635        C638   1.281       .  A
O636        H646   0.990       .  S
O637        H650   0.990       .  S
C638       C1204   1.479       .  S
Zr661       O662   2.440   1_545  S
Zr661       O663   2.443   1_545  S
Zr661       O664   2.408       .  S
Zr661       O667   2.447   1_545  S
Zr661       O669   2.379       .  S
Zr661       O670   2.379   1_545  S
Zr661       O671   2.412       .  S
Zr661       O672   2.403       .  S
O662        H718   0.990   1_556  S
O662        H726   0.991   1_566  S
O663        C683   1.288       .  A
O664        C685   1.281       .  A
O665       Zr675   2.426       .  S
O665        C684   1.284       .  A
O666       Zr674   2.457       .  S
O666        C685   1.289       .  A
O667        C684   1.286       .  A
O668       Zr676   2.422   1_565  S
O668        C683   1.282       .  A
O669       Zr674   2.389       .  S
O669       Zr676   2.375       .  S
O670       Zr675   2.390       .  S
O670       Zr676   2.376   1_565  S
O670        H705   0.967       .  S
O671       Zr674   2.406       .  S
O671       Zr691   2.388       .  S
O671        H708   0.966       .  S
O672       Zr675   2.382   1_545  S
O672       Zr691   2.408       .  S
Zr673       O698   2.440       .  S
Zr673       O692   2.425       .  S
Zr673       O700   2.446       .  S
Zr673       O688   2.420       .  S
Zr673       O679   2.401       .  S
Zr673       O680   2.408       .  S
Zr673       O681   2.376       .  S
Zr673       O682   2.379       .  S
Zr674       O693   2.435       .  S
Zr674       O686   2.435       .  S
Zr674       O687   2.455       .  S
Zr674       O680   2.410       .  S
Zr674       O681   2.387       .  S
Zr675       O677   2.435       .  S
Zr675       O699   2.437       .  S
Zr675       O701   2.414       .  S
Zr675       O679   2.387   1_565  S
Zr675       O682   2.392   1_565  S
Zr676       O702   2.436   1_545  S
Zr676       O703   2.435   1_545  S
Zr676       O678   2.437       .  S
Zr676       O679   2.396       .  S
Zr676       O680   2.386       .  S
O677        H714   0.990       .  S
O678        H709   0.990       .  S
O678        H723   0.990       .  S
O680        H706   0.966       .  S
O681       Zr691   2.371       .  S
O682       Zr691   2.378       .  S
O682        H707   0.966       .  S
C683        C877   1.488       .  S
C684        C793   1.479       .  S
C685       C1192   1.480       .  S
O686        H722   0.990       .  S
O687        C689   1.289       .  A
O688        C689   1.283       .  A
C689        C808   1.480       .  S
O690       Zr691   2.441       .  S
O690        H719   0.990       .  S
Zr691       O694   2.439       .  S
Zr691       O695   2.442       .  S
Zr691       O696   2.440       .  S
O692        C697   1.284       .  A
O693        H710   0.990       .  S
O693        H725   0.990       .  S
O694        H711   0.990       .  S
O695        H715   0.990       .  S
O695        H724   0.990       .  S
O696        C697   1.285       .  A
C697       C1009   1.490       .  S
O698        H717   0.990       .  S
O698        H721   0.990       .  S
O699        H713   0.990       .  S
O699        H720   0.990       .  S
O700        C704   1.286       .  A
O701        C704   1.283   1_565  A
O702        H712   0.991       .  S
O703        H716   0.990   1_565  S
C704        C916   1.476   1_545  S
Zr727       O728   2.441   1_554  S
Zr727       O729   2.441   1_554  S
Zr727       O730   2.388       .  S
Zr727       O733   2.443   1_554  S
Zr727       O735   2.380       .  S
Zr727       O736   2.368   1_554  S
Zr727       O737   2.413       .  S
Zr727       O738   2.397       .  S
O728        H784   0.991       .  S
O728        H792   0.990   1_656  S
O729        C749   1.286       .  A
O730        C751   1.277       .  A
O731       Zr741   2.412       .  S
O731        C750   1.281       .  A
O732       Zr740   2.474       .  S
O732        C751   1.292       .  A
O733        C750   1.285       .  A
O734       Zr742   2.428   1_556  S
O734        C749   1.282       .  A
O735       Zr740   2.394       .  S
O735       Zr742   2.372       .  S
O736       Zr741   2.389       .  S
O736       Zr742   2.372   1_556  S
O736        H771   0.966       .  S
O737       Zr740   2.416       .  S
O737       Zr757   2.391       .  S
O737        H774   0.965       .  S
O738       Zr741   2.384   1_554  S
O738       Zr757   2.408       .  S
Zr739       O764   2.440       .  S
Zr739       O758   2.435       .  S
Zr739       O766   2.451       .  S
Zr739       O754   2.406       .  S
Zr739       O745   2.403       .  S
Zr739       O746   2.415       .  S
Zr739       O747   2.377       .  S
Zr739       O748   2.369       .  S
Zr740       O759   2.435       .  S
Zr740       O752   2.435       .  S
Zr740       O753   2.470       .  S
Zr740       O746   2.414       .  S
Zr740       O747   2.395       .  S
Zr741       O743   2.433       .  S
Zr741       O765   2.438       .  S
Zr741       O767   2.406       .  S
Zr741       O745   2.388   1_556  S
Zr741       O748   2.390   1_556  S
Zr742       O768   2.435   1_554  S
Zr742       O769   2.437   1_554  S
Zr742       O744   2.438       .  S
Zr742       O745   2.405       .  S
Zr742       O746   2.385       .  S
O743        H780   0.990       .  S
O744        H775   0.990       .  S
O744        H789   0.990       .  S
O746        H772   0.964       .  S
O747       Zr757   2.376       .  S
O748       Zr757   2.380       .  S
O748        H773   0.966       .  S
C749       C1024   1.492       .  S
C750        C904   1.471       .  S
C751       C1060   1.488       .  S
O752        H788   0.990       .  S
O753        C755   1.291       .  A
O754        C755   1.280       .  A
C755        C832   1.484       .  S
O756       Zr757   2.441       .  S
O756        H785   0.990       .  S
Zr757       O760   2.439       .  S
Zr757       O761   2.444       .  S
Zr757       O762   2.438       .  S
O758        C763   1.285       .  A
O759        H776   0.990       .  S
O759        H791   0.990       .  S
O760        H777   0.990       .  S
O761        H781   0.990       .  S
O761        H790   0.989       .  S
O762        C763   1.284       .  A
C763        C964   1.497       .  S
O764        H783   0.990       .  S
O764        H787   0.991       .  S
O765        H779   0.990       .  S
O765        H786   0.990       .  S
O766        C770   1.286       .  A
O767        C770   1.281   1_556  A
O768        H778   0.990       .  S
O769        H782   0.990       .  S
C770        C796   1.481   1_554  S
C793        C794   1.408   1_556  A
C793        C798   1.406       .  A
C794        C795   1.410       .  A
C794        H799   1.083       .  S
C795        C796   1.411   1_554  A
C795        O800   1.371       .  S
C796        C797   1.403       .  A
C797        C798   1.393       .  A
C797        H801   1.084       .  S
C798        O802   1.372       .  S
O800        H804   0.992       .  S
O802        H803   0.992       .  S
C805        C806   1.406       .  A
C805        C810   1.417       .  A
C806        C807   1.400       .  A
C806        H811   1.083       .  S
C807        C808   1.409       .  A
C807        O812   1.373       .  S
C808        C809   1.402       .  A
C809        C810   1.404       .  A
C809        H813   1.084       .  S
C810        O814   1.372       .  S
O812        H816   0.991       .  S
O814        H815   0.992       .  S
C817        C818   1.404       .  A
C817        C822   1.418       .  A
C818        C819   1.393       .  A
C818        H823   1.082       .  S
C819        C820   1.410       .  A
C819        O824   1.371       .  S
C820        C821   1.404       .  A
C821        C822   1.408       .  A
C821        H825   1.084       .  S
C822        O826   1.371       .  S
O824        H828   0.992       .  S
O826        H827   0.992       .  S
C829        C830   1.413       .  A
C829        C834   1.413       .  A
C830        C831   1.407       .  A
C830        H835   1.083       .  S
C831        C832   1.409       .  A
C831        O836   1.371       .  S
C832        C833   1.404       .  A
C833        C834   1.395       .  A
C833        H837   1.083       .  S
C834        O838   1.372       .  S
O836        H840   0.992       .  S
O838        H839   0.992       .  S
C841        C842   1.406       .  A
C841        C846   1.417       .  A
C842        C843   1.399       .  A
C842        H847   1.084       .  S
C843        C844   1.411       .  A
C843        O848   1.371       .  S
C844        C845   1.403       .  A
C845        C846   1.405       .  A
C845        H849   1.084       .  S
C846        O850   1.371       .  S
O848        H852   0.992       .  S
O850        H851   0.992       .  S
C853        C854   1.410       .  A
C853        C858   1.409       .  A
C854        C855   1.398       .  A
C854        H859   1.084       .  S
C855        C856   1.411       .  A
C855        O860   1.375       .  S
C856        C857   1.414       .  A
C857        C858   1.411       .  A
C857        H861   1.083       .  S
C858        O862   1.371       .  S
O860        H864   0.991       .  S
O862        H863   0.992       .  S
C865        C866   1.405       .  A
C865        C870   1.410       .  A
C866        C867   1.406       .  A
C866        H871   1.083       .  S
C867        C868   1.409       .  A
C867        O872   1.370       .  S
C868        C869   1.401       .  A
C869        C870   1.394       .  A
C869        H873   1.084       .  S
C870        O874   1.372       .  S
O872        H876   0.992       .  S
O874        H875   0.992       .  S
C877        C878   1.406       .  A
C877        C882   1.416       .  A
C878        C879   1.397       .  A
C878        H883   1.083       .  S
C879        C880   1.409       .  A
C879        O884   1.371       .  S
C880        C881   1.402       .  A
C881        C882   1.403       .  A
C881        H885   1.084       .  S
C882        O886   1.371       .  S
O884        H888   0.992       .  S
O886        H887   0.992       .  S
C889        C890   1.409       .  A
C889        C894   1.413       .  A
C890        C891   1.403       .  A
C890        H895   1.083       .  S
C891        C892   1.408       .  A
C891        O896   1.371       .  S
C892        C893   1.405       .  A
C893        C894   1.397       .  A
C893        H897   1.084       .  S
C894        O898   1.372       .  S
O896        H900   0.992       .  S
O898        H899   0.992       .  S
C901        C902   1.405   1_655  A
C901        C906   1.408       .  A
C902        C903   1.406       .  A
C902        H907   1.084       .  S
C903        C904   1.409   1_455  A
C903        O908   1.371       .  S
C904        C905   1.401       .  A
C905        C906   1.393       .  A
C905        H909   1.084       .  S
C906        O910   1.373       .  S
O908        H912   0.991       .  S
O910        H911   0.992       .  S
C913        C914   1.399       .  A
C913        C918   1.408   1_565  A
C914        C915   1.392       .  A
C914        H919   1.084       .  S
C915        C916   1.409       .  A
C915        O920   1.372       .  S
C916        C917   1.406   1_565  A
C917        C918   1.407       .  A
C917        H921   1.083       .  S
C918        O922   1.371       .  S
O920        H924   0.991       .  S
O922        H923   0.992       .  S
C925        C926   1.404       .  A
C925        C930   1.409       .  A
C926        C927   1.407       .  A
C926        H931   1.084       .  S
C927        C928   1.418       .  A
C927        O932   1.372       .  S
C928        C929   1.405       .  A
C929        C930   1.396       .  A
C929        H933   1.083       .  S
C930        O934   1.371       .  S
O932        H936   0.991       .  S
O934        H935   0.992       .  S
C937        C938   1.412       .  A
C937        C942   1.409       .  A
C938        C939   1.408       .  A
C938        H943   1.083       .  S
C939        C940   1.409       .  A
C939        O944   1.371       .  S
C940        C941   1.410       .  A
C941        C942   1.391       .  A
C941        H945   1.082       .  S
C942        O946   1.373       .  S
O944        H948   0.992       .  S
O946        H947   0.991       .  S
C949        C950   1.410       .  A
C949        C954   1.410       .  A
C950        C951   1.404       .  A
C950        H955   1.083       .  S
C951        C952   1.408       .  A
C951        O956   1.371       .  S
C952        C953   1.404       .  A
C953        C954   1.394       .  A
C953        H957   1.082       .  S
C954        O958   1.371       .  S
O956        H960   0.992       .  S
O958        H959   0.992       .  S
C961        C962   1.406       .  A
C961        C966   1.409       .  A
C962        C963   1.395       .  A
C962        H967   1.083       .  S
C963        C964   1.414       .  A
C963        O968   1.372       .  S
C964        C965   1.412       .  A
C965        C966   1.410       .  A
C965        H969   1.083       .  S
C966        O970   1.371       .  S
O968        H972   0.992       .  S
O970        H971   0.992       .  S
C973        C974   1.412       .  A
C973        C978   1.414       .  A
C974        C975   1.409       .  A
C974        H979   1.083       .  S
C975        C976   1.409       .  A
C975        O980   1.371       .  S
C976        C977   1.404       .  A
C977        C978   1.394       .  A
C977        H981   1.083       .  S
C978        O982   1.372       .  S
O980        H984   0.992       .  S
O982        H983   0.992       .  S
C985        C986   1.408       .  A
C985        C990   1.412       .  A
C986        C987   1.410       .  A
C986        H991   1.083       .  S
C987        C988   1.409       .  A
C987        O992   1.371       .  S
C988        C989   1.399       .  A
C989        C990   1.394       .  A
C989        H993   1.085       .  S
C990        O994   1.373       .  S
O992        H996   0.992       .  S
O994        H995   0.992       .  S
C997        C998   1.406       .  A
C997       C1002   1.408       .  A
C998        C999   1.411       .  A
C998       H1003   1.083       .  S
C999       C1000   1.412       .  A
C999       O1004   1.371       .  S
C1000      C1001   1.406       .  A
C1001      C1002   1.396       .  A
C1001      H1005   1.084       .  S
C1002      O1006   1.372       .  S
O1004      H1008   0.992       .  S
O1006      H1007   0.991       .  S
C1009      C1010   1.411       .  A
C1009      C1014   1.408       .  A
C1010      C1011   1.411       .  A
C1010      H1015   1.083       .  S
C1011      C1012   1.411       .  A
C1011      O1016   1.371       .  S
C1012      C1013   1.412       .  A
C1013      C1014   1.393       .  A
C1013      H1017   1.082       .  S
C1014      O1018   1.373       .  S
O1016      H1020   0.992       .  S
O1018      H1019   0.991       .  S
C1021      C1022   1.406       .  A
C1021      C1026   1.408       .  A
C1022      C1023   1.397       .  A
C1022      H1027   1.084       .  S
C1023      C1024   1.412       .  A
C1023      O1028   1.371       .  S
C1024      C1025   1.410       .  A
C1025      C1026   1.406       .  A
C1025      H1029   1.083       .  S
C1026      O1030   1.371       .  S
O1028      H1032   0.992       .  S
O1030      H1031   0.992       .  S
C1033      C1034   1.406       .  A
C1033      C1038   1.409       .  A
C1034      C1035   1.398       .  A
C1034      H1039   1.084       .  S
C1035      C1036   1.413       .  A
C1035      O1040   1.373       .  S
C1036      C1037   1.412       .  A
C1037      C1038   1.408       .  A
C1037      H1041   1.083       .  S
C1038      O1042   1.371       .  S
O1040      H1044   0.992       .  S
O1042      H1043   0.992       .  S
C1045      C1046   1.403   1_554  A
C1045      C1050   1.408   1_554  A
C1046      C1047   1.406       .  A
C1046      H1051   1.084   1_556  S
C1047      C1048   1.415       .  A
C1047      O1052   1.372       .  S
C1048      C1049   1.406       .  A
C1049      C1050   1.397       .  A
C1049      H1053   1.083       .  S
C1050      O1054   1.371   1_556  S
O1052      H1056   0.992       .  S
O1054      H1055   0.992       .  S
C1057      C1058   1.413       .  A
C1057      C1062   1.409       .  A
C1058      C1059   1.407       .  A
C1058      H1063   1.083       .  S
C1059      C1060   1.408   1_455  A
C1059      O1064   1.371   1_455  S
C1060      C1061   1.409   1_655  A
C1061      C1062   1.391       .  A
C1061      H1065   1.083       .  S
C1062      O1066   1.373       .  S
O1064      H1068   0.991       .  S
O1066      H1067   0.991       .  S
C1069      C1070   1.406       .  A
C1069      C1074   1.409       .  A
C1070      C1071   1.406       .  A
C1070      H1075   1.083       .  S
C1071      C1072   1.408       .  A
C1071      O1076   1.371       .  S
C1072      C1073   1.399       .  A
C1073      C1074   1.391       .  A
C1073      H1077   1.084       .  S
C1074      O1078   1.373       .  S
O1076      H1080   0.992       .  S
O1078      H1079   0.992       .  S
C1081      C1082   1.403       .  A
C1081      C1086   1.407   1_554  A
C1082      C1083   1.395       .  A
C1082      H1087   1.084       .  S
C1083      C1084   1.408   1_554  A
C1083      O1088   1.373       .  S
C1084      C1085   1.405       .  A
C1085      C1086   1.405       .  A
C1085      H1089   1.083       .  S
C1086      O1090   1.371       .  S
O1088      H1092   0.992       .  S
O1090      H1091   0.991       .  S
C1093      C1094   1.407       .  A
C1093      C1098   1.405       .  A
C1094      C1095   1.409       .  A
C1094      H1099   1.083       .  S
C1095      C1096   1.410       .  A
C1095      O1100   1.371       .  S
C1096      C1097   1.404       .  A
C1097      C1098   1.393       .  A
C1097      H1101   1.084       .  S
C1098      O1102   1.373       .  S
O1100      H1104   0.992       .  S
O1102      H1103   0.992       .  S
C1105      C1106   1.403       .  A
C1105      C1110   1.411   1_455  A
C1106      C1107   1.391       .  A
C1106      H1111   1.084       .  S
C1107      C1108   1.409       .  A
C1107      O1112   1.372       .  S
C1108      C1109   1.406   1_455  A
C1109      C1110   1.409       .  A
C1109      H1113   1.083       .  S
C1110      O1114   1.370       .  S
O1112      H1116   0.991       .  S
O1114      H1115   0.992       .  S
C1117      C1118   1.405   1_455  A
C1117      C1122   1.408   1_455  A
C1118      C1119   1.395       .  A
C1118      H1123   1.082       .  S
C1119      C1120   1.411       .  A
C1119      O1124   1.372       .  S
C1120      C1121   1.413       .  A
C1121      C1122   1.408       .  A
C1121      H1125   1.083       .  S
C1122      O1126   1.371   1_655  S
O1124      H1128   0.992       .  S
O1126      H1127   0.992       .  S
C1129      C1130   1.403       .  A
C1129      C1134   1.412       .  A
C1130      C1131   1.406       .  A
C1130      H1135   1.084       .  S
C1131      C1132   1.417       .  A
C1131      O1136   1.371       .  S
C1132      C1133   1.404       .  A
C1133      C1134   1.397       .  A
C1133      H1137   1.083       .  S
C1134      O1138   1.372       .  S
O1136      H1140   0.992       .  S
O1138      H1139   0.992       .  S
C1141      C1142   1.405   1_565  A
C1141      C1146   1.406   1_565  A
C1142      C1143   1.395       .  A
C1142      H1147   1.083   1_545  S
C1143      C1144   1.411       .  A
C1143      O1148   1.371       .  S
C1144      C1145   1.411       .  A
C1145      C1146   1.402       .  A
C1145      H1149   1.083       .  S
C1146      O1150   1.371   1_545  S
O1148      H1152   0.992       .  S
O1150      H1151   0.992       .  S
C1153      C1154   1.407   1_545  A
C1153      C1158   1.409   1_545  A
C1154      C1155   1.392       .  A
C1154      H1159   1.083       .  S
C1155      C1156   1.412       .  A
C1155      O1160   1.372       .  S
C1156      C1157   1.412       .  A
C1157      C1158   1.407       .  A
C1157      H1161   1.083       .  S
C1158      O1162   1.371   1_565  S
O1160      H1164   0.992       .  S
O1162      H1163   0.992       .  S
C1165      C1166   1.404       .  A
C1165      C1170   1.418       .  A
C1166      C1167   1.396       .  A
C1166      H1171   1.081       .  S
C1167      C1168   1.409       .  A
C1167      O1172   1.371       .  S
C1168      C1169   1.402       .  A
C1169      C1170   1.406       .  A
C1169      H1173   1.084       .  S
C1170      O1174   1.371       .  S
O1172      H1176   0.992       .  S
O1174      H1175   0.992       .  S
C1177      C1178   1.403       .  A
C1177      C1182   1.409       .  A
C1178      C1179   1.406       .  A
C1178      H1183   1.084       .  S
C1179      C1180   1.417       .  A
C1179      O1184   1.371       .  S
C1180      C1181   1.404       .  A
C1181      C1182   1.396       .  A
C1181      H1185   1.082       .  S
C1182      O1186   1.372       .  S
O1184      H1188   0.992       .  S
O1186      H1187   0.992       .  S
C1189      C1190   1.410       .  A
C1189      C1194   1.413       .  A
C1190      C1191   1.405       .  A
C1190      H1195   1.083       .  S
C1191      C1192   1.409   1_554  A
C1191      O1196   1.371   1_554  S
C1192      C1193   1.403   1_556  A
C1193      C1194   1.395       .  A
C1193      H1197   1.084   1_554  S
C1194      O1198   1.372       .  S
O1196      H1200   0.992       .  S
O1198      H1199   0.992       .  S
C1201      C1202   1.399       .  A
C1201      C1206   1.408       .  A
C1202      C1203   1.394       .  A
C1202      H1207   1.084       .  S
C1203      C1204   1.410       .  A
C1203      O1208   1.373       .  S
C1204      C1205   1.407       .  A
C1205      C1206   1.408       .  A
C1205      H1209   1.083       .  S
C1206      O1210   1.371       .  S
O1208      H1212   0.992       .  S
O1210      H1211   0.991       .  S
C1213      C1214   1.405   1_545  A
C1213      C1218   1.404       .  A
C1214      C1215   1.407       .  A
C1214      H1219   1.083       .  S
C1215      C1216   1.408       .  A
C1215      O1220   1.371       .  S
C1216      C1217   1.400   1_565  A
C1217      C1218   1.392       .  A
C1217      H1221   1.084       .  S
C1218      O1222   1.372       .  S
O1220      H1224   0.992       .  S
O1222      H1223   0.992       .  S
