geometry optimzed in LAMMPS
_audit_creation_date              2020-11-30 
_audit_creation_method            'lammps2cif' 
_symmetry_space_group_name_H-M    'P1' 
_symmetry_Int_Tables_number       1 
_symmetry_cell_setting            triclinic 
loop_ 
_symmetry_equiv_pos_as_xyz 
  x,y,z 
_cell_length_a                    29.82060521 
_cell_length_b                    33.112210597853256 
_cell_length_c                    31.49242716549352 
_cell_angle_alpha                 90.36570290369235 
_cell_angle_beta                  90.13026087860788 
_cell_angle_gamma                 89.96380290273409 
loop_ 
_atom_site_label 
_atom_site_type_symbol 
_atom_site_fract_x 
_atom_site_fract_y 
_atom_site_fract_z 
_atom_site_charge 
C1          C  0.37482488  0.40014799  0.08442606     0.43800
N2          N  0.36271532  0.45507584  0.04994108     0.02700
C3          C  0.16509790  0.56657164  0.06835426    -0.05200
H4          H  0.13200942  0.42882432  0.05467085     0.08200
C5          C  0.22003770  0.42573748  0.89951918    -0.05600
Co6        Co  0.28122814  0.49867066  0.08079735     0.74200
N7          N  0.19805421  0.45524852  0.05355727    -0.24700
Co8        Co  0.19606227  0.49812746  0.00514697     0.74100
C9          C  0.17657750  0.40935416  0.91104686     0.43900
N10         N  0.32819406  0.45280658  0.92793580     0.02300
N11         N  0.19641121  0.45397668  0.95728556     0.02400
N12         N  0.22330896  0.56614245  0.11410168    -0.45600
H13         H  0.31364757  0.41213164  0.12763740     0.08100
N14         N  0.23151365  0.45463078  0.08110207     0.02700
N15         N  0.19627139  0.54136203  0.95657226     0.02400
C16         C  0.17672331  0.58484088  0.90949412     0.44000
N17         N  0.36064107  0.45375176  0.95632722    -0.24200
C18         C  0.33289444  0.57828369  0.10105355    -0.05100
N19         N  0.38916657  0.42301602  0.05180408    -0.45300
N20         N  0.16323237  0.56612083  0.94545519    -0.45500
C21         C  0.36909655  0.60084834  0.08105880     0.43800
N22         N  0.23083841  0.54200921  0.08142674     0.02700
N23         N  0.36041139  0.54210270  0.95509345    -0.24200
N24         N  0.33115024  0.45463389  0.07909243    -0.24700
N25         N  0.32782729  0.54185403  0.92680003     0.02300
H26         H  0.41419878  0.58408811  0.96808603     0.08200
H27         H  0.23875031  0.57146387  0.86909784     0.08200
N28         N  0.19736956  0.54155573  0.05387380    -0.24800
N29         N  0.22910284  0.45349263  0.92912072    -0.24400
N30         N  0.36099773  0.54391881  0.04890242     0.02700
C31         C  0.18241136  0.41472595  0.10801397     0.44100
C32         C  0.38543974  0.42023951  0.95202997    -0.05600
N33         N  0.22891474  0.54090749  0.92830578    -0.24400
H34         H  0.23876203  0.42135145  0.87047039     0.08200
N35         N  0.22314064  0.43136253  0.11400271    -0.45600
H36         H  0.41302883  0.41195603  0.97234517     0.08200
C37         C  0.36448965  0.59609116  0.91369184     0.43900
C38         C  0.33611644  0.42129273  0.10264006    -0.05100
Co39       Co  0.36260566  0.49876521  0.00261891     0.73800
N40         N  0.32830022  0.41912251  0.90507105    -0.45300
C41         C  0.18289121  0.58329369  0.10832142     0.44200
N42         N  0.38463579  0.57772916  0.04885646    -0.45300
Co43       Co  0.27873652  0.49723869  0.92736083     0.73900
C44         C  0.21994497  0.56782995  0.89815947    -0.05600
C45         C  0.16540354  0.43102714  0.06794363    -0.05200
N46         N  0.32993398  0.54377336  0.07862902    -0.24700
N47         N  0.16330237  0.42902704  0.94672623    -0.45500
H48         H  0.13201139  0.56981191  0.05466330     0.08200
C49         C  0.38594882  0.57484635  0.94876022    -0.05600
Cl50       Cl  0.27949639  0.49824244  0.00401671    -0.48600
C51         C  0.36356349  0.39684927  0.91831050     0.43900
H52         H  0.31008712  0.58785512  0.12577439     0.08100
N53         N  0.32840233  0.57404218  0.90208955    -0.45300
C54         C  0.81543063  0.41326668  0.10463958     0.43800
N55         N  0.79805447  0.45817616  0.05818665     0.02700
C56         C  0.60912664  0.58004110  0.05829984    -0.05200
H57         H  0.58157191  0.41799552  0.03523072     0.08200
C58         C  0.66500456  0.42424908  0.90789467    -0.05600
Co59       Co  0.71481814  0.50255549  0.08514006     0.74200
N60         N  0.63401225  0.45931689  0.05297371    -0.24700
Co61       Co  0.63404813  0.50315110  0.00645025     0.74100
C62         C  0.62586588  0.40297026  0.92470010     0.43900
N63         N  0.76815150  0.45766186  0.93293798     0.02300
N64         N  0.63586457  0.45856542  0.95943573     0.02400
N65         N  0.66356536  0.57967660  0.10818170    -0.45600
H66         H  0.75220674  0.42659097  0.14352411     0.08100
N67         N  0.66511977  0.45864162  0.08270526     0.02700
N68         N  0.63693428  0.54734896  0.95995494     0.02400
C69         C  0.62989883  0.60332506  0.92651404     0.44000
N70         N  0.80078033  0.45846566  0.96139103    -0.24200
C71         C  0.77318203  0.57275921  0.11684206    -0.05100
N72         N  0.83018589  0.43256696  0.06948283    -0.45300
N73         N  0.61283401  0.58094641  0.95829304    -0.45500
C74         C  0.81721965  0.58903219  0.10738669     0.43800
N75         N  0.66571971  0.54724659  0.08348706     0.02700
N76         N  0.80080723  0.54537316  0.96170349    -0.24200
N77         N  0.76443578  0.45843014  0.08542457    -0.24700
N78         N  0.76826255  0.54521329  0.93318332     0.02300
H79         H  0.86456529  0.57638257  0.96399560     0.08200
H80         H  0.69067731  0.58913794  0.88428311     0.08200
N81         N  0.63474572  0.54714672  0.05362394    -0.24800
N82         N  0.66864330  0.45783934  0.93155082    -0.24400
N83         N  0.79886394  0.54573891  0.05906702     0.02700
C84         C  0.62807262  0.40386106  0.09164537     0.44100
C85         C  0.83311325  0.43276751  0.94847033    -0.05600
N86         N  0.66942858  0.54662261  0.93170752    -0.24400
H87         H  0.68866612  0.41517101  0.88377153     0.08200
N88         N  0.66320433  0.42569439  0.10613576    -0.45600
H89         H  0.86566641  0.42933260  0.96321692     0.08200
C90         C  0.81512095  0.58848481  0.90874498     0.43900
C91         C  0.77208551  0.43071677  0.11520040    -0.05100
Co92       Co  0.80071700  0.50201622  0.01024390     0.73800
N93         N  0.77639641  0.43260960  0.90110065    -0.45300
C94         C  0.62842194  0.60184789  0.09444552     0.44200
N95         N  0.83181577  0.57010349  0.07165653    -0.45300
Co96       Co  0.71835256  0.50172276  0.93167727     0.73900
C97         C  0.66719585  0.58037034  0.90862847    -0.05600
C98         C  0.60838783  0.42643783  0.05663559    -0.05200
N99         N  0.76504155  0.54586978  0.08608910    -0.24700
N100        N  0.60989186  0.42624061  0.95670418    -0.45500
H101        H  0.58229566  0.58873429  0.03714359     0.08200
C102        C  0.83237215  0.57177416  0.94886580    -0.05600
Cl103      Cl  0.71727420  0.50238357  0.00839642    -0.48600
C104        C  0.81629503  0.41502879  0.90864527     0.43900
H105        H  0.75326184  0.57664159  0.14524172     0.08100
N106        N  0.77569539  0.57007056  0.90150961    -0.45300
C107        C  0.42106653  0.10123074  0.10656374     0.43800
N108        N  0.45696073  0.04582137  0.11632856     0.02700
C109        C  0.43614285  0.93934559  0.30574575    -0.05200
H110        H  0.45024641  0.07816787  0.33400809     0.08200
C111        C  0.61888479  0.07596544  0.24701743    -0.05600
Co112      Co  0.42575009  0.00371264  0.19415357     0.74200
N113        N  0.45369482  0.04907698  0.27250657    -0.24700
Co114      Co  0.50635598  0.00600316  0.27476674     0.74100
C115        C  0.60915164  0.09364641  0.28807378     0.43900
N116        N  0.58571481  0.04733933  0.14682935     0.02300
N117        N  0.55787653  0.05000459  0.27221528     0.02400
N118        N  0.38963384  0.93951501  0.24951050    -0.45600
H119        H  0.37570591  0.08993189  0.16393883     0.08100
N120        N  0.42527286  0.04841652  0.24023861     0.02700
N121        N  0.55931011  0.96277966  0.27470334     0.02400
C122        C  0.61493866  0.92517384  0.29453449     0.44000
N123        N  0.55531309  0.04635383  0.11650197    -0.24200
C124        C  0.40219934  0.92449317  0.14725243    -0.05100
N125        N  0.45569555  0.07860421  0.09248610    -0.45300
N126        N  0.57554088  0.94201820  0.30747401    -0.45500
C127        C  0.42126461  0.90061649  0.11267408     0.43800
N128        N  0.42533026  0.96177141  0.24238745     0.02700
N129        N  0.55639270  0.95785777  0.11832153    -0.24200
N130        N  0.42643385  0.04647747  0.14642337    -0.24700
N131        N  0.58677720  0.95877116  0.14867193     0.02300
H132        H  0.54083555  0.91402615  0.06948464     0.08200
H133        H  0.65300614  0.93696263  0.23312259     0.08200
N134        N  0.45376470  0.96258279  0.27467762    -0.24800
N135        N  0.58640607  0.04910094  0.24017199    -0.24400
N136        N  0.45752285  0.95654397  0.11885284     0.02700
C137        C  0.39374163  0.08924232  0.28464924     0.44100
C138        C  0.55948591  0.07983411  0.09305738    -0.05600
N139        N  0.58767254  0.96239997  0.24246953    -0.24400
H140        H  0.64900076  0.07878876  0.22817930     0.08200
N141        N  0.38985990  0.07141863  0.24643349    -0.45600
H142        H  0.53755274  0.08866931  0.06737939     0.08200
C143        C  0.59923483  0.90300152  0.11579258     0.43900
C144        C  0.40165113  0.07997175  0.14236644    -0.05100
Co145      Co  0.50652447  0.00152796  0.11611130     0.73800
N146        N  0.60993627  0.08072136  0.14648307    -0.45300
C147        C  0.39314839  0.92376597  0.28845713     0.44200
N148        N  0.45574247  0.92232274  0.09674508    -0.45300
Co149      Co  0.58698714  0.00431263  0.19420230     0.73900
C150        C  0.62252536  0.93883376  0.25159982    -0.05600
C151        C  0.43662487  0.07422842  0.30242646    -0.05200
N152        N  0.42705612  0.95804474  0.14896092    -0.24700
N153        N  0.57155076  0.07517281  0.30273223    -0.45500
H154        H  0.44935506  0.93708268  0.33763094     0.08200
C155        C  0.56212083  0.92407452  0.09526351    -0.05600
Cl156      Cl  0.50639016  0.00373628  0.19534280    -0.48600
C157        C  0.59544943  0.10285965  0.11344383     0.43900
H158        H  0.37641112  0.91676569  0.16961522     0.08100
N159        N  0.61257158  0.92630124  0.14874324    -0.45300
C160        C  0.38279042  0.08403197  0.71952245     0.43800
N161        N  0.43955059  0.04634640  0.73541548     0.02700
C162        C  0.45008451  0.91978309  0.90990263    -0.05200
H163        H  0.46263090  0.08562485  0.94053298     0.08200
C164        C  0.60136412  0.08229524  0.86188232    -0.05600
Co165      Co  0.41612814  0.99869171  0.81329831     0.74200
N166        N  0.44738468  0.04286252  0.89054261    -0.24700
Co167      Co  0.49957496  0.00076145  0.88863487     0.74100
C168        C  0.58289838  0.10225202  0.89932469     0.43900
N169        N  0.57386035  0.05137472  0.76265745     0.02300
N170        N  0.54669142  0.04727413  0.88747057     0.02400
N171        N  0.39701952  0.91964598  0.85884541    -0.45600
H172        H  0.34603728  0.06676232  0.78033416     0.08100
N173        N  0.41549741  0.04158448  0.86157903     0.02700
N174        N  0.55121655  0.95859918  0.88387081     0.02400
C175        C  0.58992138  0.90389415  0.88940679     0.44000
N176        N  0.54371190  0.05056074  0.73178990    -0.24200
C177        C  0.38714769  0.92835102  0.75676503    -0.05100
N178        N  0.42245715  0.06934232  0.70484100    -0.45300
N179        N  0.55550595  0.92514446  0.90626715    -0.45500
C180        C  0.39708703  0.91374362  0.71431590     0.43800
N181        N  0.42109433  0.95317590  0.85806411     0.02700
N182        N  0.54784733  0.96446550  0.72816096    -0.24200
N183        N  0.41179436  0.04340655  0.76790398    -0.24700
N184        N  0.57829263  0.96421589  0.75872907     0.02300
H185        H  0.54725030  0.93781776  0.66526452     0.08200
H186        H  0.63264104  0.92120424  0.83100454     0.08200
N187        N  0.45271885  0.95390936  0.88721660    -0.24800
N188        N  0.57657210  0.04888819  0.85676141    -0.24400
N189        N  0.44540344  0.95915473  0.73203871     0.02700
C190        C  0.40076843  0.09527431  0.89762988     0.44100
C191        C  0.55838503  0.07486601  0.70053730    -0.05600
N192        N  0.58037411  0.96056010  0.85265449    -0.24400
H193        H  0.62718766  0.09263513  0.84049361     0.08200
N194        N  0.38742051  0.07237366  0.86438884    -0.45600
H195        H  0.54354608  0.07692850  0.66926646     0.08200
C196        C  0.60630498  0.92522406  0.71085558     0.43900
C197        C  0.37614075  0.06677554  0.76122836    -0.05100
Co198      Co  0.49386628  0.00534590  0.73087641     0.73800
N199        N  0.60826164  0.07496361  0.75423754    -0.45300
C200        C  0.41305963  0.89665942  0.89072477     0.44200
N201        N  0.43311082  0.93485018  0.70035462    -0.45300
Co202      Co  0.57778911  0.00630973  0.80797460     0.73900
C203        C  0.60671712  0.92782498  0.85383597    -0.05600
C204        C  0.44065644  0.07553129  0.91527129    -0.05200
N205        N  0.41777337  0.95667569  0.76462192    -0.24700
N206        N  0.54864707  0.07910519  0.91310672    -0.45500
H207        H  0.47274492  0.91178968  0.93523509     0.08200
C208        C  0.56288260  0.94091635  0.69613345    -0.05600
Cl209      Cl  0.49687128  0.00299060  0.80999674    -0.48600
C210        C  0.60158626  0.09119117  0.71575192     0.43900
H211        H  0.35789771  0.92265615  0.77608110     0.08100
N212        N  0.61344131  0.94158252  0.74945012    -0.45300
C213        C  0.09184027  0.36514406  0.40641925     0.43800
N214        N  0.05296143  0.35658002  0.46292392     0.02700
C215        C  0.05589553  0.17941137  0.58109570    -0.05200
H216        H  0.05112664  0.15175678  0.42676928     0.08200
C217        C  0.88825551  0.23673183  0.42587883    -0.05600
Co218      Co  0.08013053  0.28229158  0.50985051     0.74200
N219        N  0.05107153  0.20863829  0.46124463    -0.24700
Co220      Co  0.99636503  0.20843597  0.50414046     0.74100
C221        C  0.89792954  0.19734482  0.40764371     0.43900
N222        N  0.92301536  0.33122261  0.45695561     0.02300
N223        N  0.94756954  0.21184826  0.45552908     0.02400
N224        N  0.10663494  0.22973528  0.58390497    -0.45600
H225        H  0.13565465  0.30965818  0.42066118     0.08100
N226        N  0.08101488  0.23802490  0.46335655     0.02700
N227        N  0.94191621  0.20979345  0.54735788     0.02400
C228        C  0.88535099  0.19282752  0.58624467     0.44000
N229        N  0.95421788  0.35928988  0.45870205    -0.24200
C230        C  0.10238094  0.32856466  0.59274449    -0.05100
N231        N  0.05671588  0.37950171  0.42883142    -0.45300
N232        N  0.92479483  0.17940900  0.56966215    -0.45500
C233        C  0.08363938  0.36273285  0.61600477     0.43800
N234        N  0.07533597  0.23703899  0.55524167     0.02700
N235        N  0.95063977  0.35797849  0.55251690    -0.24200
N236        N  0.08285566  0.32724831  0.46379833    -0.24700
N237        N  0.91893906  0.33029728  0.55103574     0.02300
H238        H  0.96886746  0.40249776  0.59990894     0.08200
H239        H  0.84990803  0.25288490  0.57358852     0.08200
N240        N  0.04492595  0.20804543  0.55275114    -0.24800
N241        N  0.91957127  0.24276973  0.45548941    -0.24400
N242        N  0.04918439  0.35603231  0.55636386     0.02700
C243        C  0.10940502  0.19700001  0.41778721     0.44100
C244        C  0.95170930  0.38137061  0.42307475    -0.05600
N245        N  0.91464841  0.24121368  0.54693520    -0.24400
H246        H  0.85861921  0.25515375  0.42167058     0.08200
N247        N  0.11581614  0.23210061  0.43834612    -0.45600
H248        H  0.97422738  0.40545085  0.41435013     0.08200
C249        C  0.90877648  0.36069872  0.61074842     0.43900
C250        C  0.10943183  0.33054599  0.42966732    -0.05100
Co251      Co  0.00166215  0.35883486  0.50762387     0.73800
N252        N  0.90015944  0.33159115  0.42091433    -0.45300
C253        C  0.09672729  0.19427985  0.60222119     0.44200
N254        N  0.05063151  0.37823903  0.59156611    -0.45300
Co255      Co  0.91855431  0.28675615  0.50270651     0.73900
C256        C  0.87939026  0.23392460  0.57153182    -0.05600
C257        C  0.06652048  0.18068524  0.43339101    -0.05200
N258        N  0.07858796  0.32636458  0.55680318    -0.24700
N259        N  0.93455654  0.18304906  0.42853206    -0.45500
H260        H  0.03940819  0.15050792  0.58430696     0.08200
C261        C  0.94646950  0.37905678  0.58876605    -0.05600
Cl262      Cl  0.99921798  0.28386193  0.50607328    -0.48600
C263        C  0.91604598  0.36254850  0.39791710     0.43900
H264        H  0.12771405  0.30725290  0.60273027     0.08100
N265        N  0.89348677  0.33051950  0.58554099    -0.45300
C266        C  0.11358811  0.80364766  0.41866787     0.43800
N267        N  0.05868112  0.79138748  0.46132291     0.02700
C268        C  0.04157143  0.62429962  0.59229990    -0.05200
H269        H  0.02103426  0.59881505  0.41719092     0.08200
C270        C  0.89174038  0.68149592  0.42488412    -0.05600
Co271      Co  0.07933364  0.71534319  0.50960164     0.74200
N272        N  0.04179952  0.64409078  0.46295287    -0.24700
Co273      Co  0.99176682  0.64760109  0.50893929     0.74100
C274        C  0.90825375  0.64623142  0.40193510     0.43900
N275        N  0.92316280  0.77165981  0.45931381     0.02300
N276        N  0.94323715  0.65165991  0.46139786     0.02400
N277        N  0.09734216  0.67036026  0.59269002    -0.45600
H278        H  0.14831119  0.74407630  0.43550844     0.08100
N279        N  0.07502525  0.67029173  0.46330313     0.02700
N280        N  0.94245113  0.65396523  0.55528339     0.02400
C281        C  0.90915947  0.65247474  0.61579059     0.44000
N282        N  0.95531491  0.79915776  0.45934577    -0.24200
C283        C  0.11678492  0.76838365  0.58016682    -0.05100
N284        N  0.07557657  0.81949656  0.43582262    -0.45300
N285        N  0.94012429  0.63378879  0.59144967    -0.45500
C286        C  0.11139101  0.80993893  0.59412513     0.43800
N287        N  0.07328624  0.67229508  0.55728910     0.02700
N288        N  0.95308902  0.80215813  0.55056791    -0.24200
N289        N  0.08486076  0.75919935  0.46322493    -0.24700
N290        N  0.92174650  0.77397548  0.55127078     0.02300
H291        H  0.95459386  0.86261807  0.57714100     0.08200
H292        H  0.86853489  0.70946913  0.60005074     0.08200
N293        N  0.04010404  0.64608052  0.55657257    -0.24800
N294        N  0.91569986  0.68274855  0.46082141    -0.24400
N295        N  0.05638511  0.79373184  0.55287503     0.02700
C296        C  0.08346613  0.63756657  0.40472941     0.44100
C297        C  0.94400730  0.82793057  0.43116424    -0.05600
N298        N  0.91519598  0.68522395  0.55453037    -0.24400
H299        H  0.86804693  0.70412023  0.41453712     0.08200
N300        N  0.10017310  0.66786007  0.42882844    -0.45600
H301        H  0.96166441  0.85608524  0.42658756     0.08200
C302        C  0.89440400  0.82091260  0.59115164     0.43900
C303        C  0.11954263  0.76393076  0.43710856    -0.05100
Co304      Co  0.00602640  0.79757709  0.50600661     0.73800
N305        N  0.89044742  0.77999000  0.43242724    -0.45300
C306        C  0.07930186  0.64060720  0.61628459     0.44200
N307        N  0.07359338  0.82410996  0.57535752    -0.45300
Co308      Co  0.91826611  0.72809085  0.50650183     0.73900
C309        C  0.89199472  0.68629736  0.59095475    -0.05600
C310        C  0.04486845  0.62142130  0.42750519    -0.05200
N311        N  0.08238186  0.76139520  0.55414429    -0.24700
N312        N  0.94029754  0.62928472  0.42642362    -0.45500
H313        H  0.01776481  0.60143739  0.60159443     0.08200
C314        C  0.93868735  0.83333086  0.57497224    -0.05600
Cl315      Cl  0.99889003  0.72257719  0.50764996    -0.48600
C316        C  0.90109088  0.81458459  0.41275272     0.43900
H317        H  0.14595817  0.74915342  0.58313062     0.08100
N318        N  0.88686832  0.78408850  0.57461315    -0.45300
C319        C  0.70051211  0.91708346  0.63091325     0.14000
C320        C  0.72792300  0.88776073  0.65018082     0.00900
C321        C  0.71203210  0.86764086  0.68631623     0.15900
C322        C  0.67072781  0.87817344  0.70425091     0.25300
C323        C  0.64407335  0.90850746  0.68603848    -0.41000
C324        C  0.65884986  0.92739803  0.64870888     0.32400
C325        C  0.77266868  0.87725966  0.63243148     0.01000
F326        F  0.73675467  0.83789209  0.70443549    -0.13300
F327        F  0.63458799  0.95778566  0.63123638    -0.13800
C328        C  0.81197811  0.88166926  0.65704983     0.15900
C329        C  0.85320507  0.86633605  0.64239644     0.25300
C330        C  0.85557749  0.84659435  0.60287831    -0.40900
C331        C  0.81683731  0.84494552  0.57713697     0.32300
C332        C  0.77584565  0.85989984  0.59182946     0.14000
F333        F  0.81001774  0.89965311  0.69586360    -0.13300
F334        F  0.81817816  0.82678654  0.53835255    -0.13800
F335        F  0.88991645  0.86844111  0.66786425    -0.16100
F336        F  0.73861143  0.85496875  0.56744598    -0.14700
F337        F  0.71503924  0.93701279  0.59601212    -0.14700
F338        F  0.65715239  0.85944814  0.74024548    -0.16100
C339        C  0.30618803  0.90460472  0.63150403     0.14000
C340        C  0.27874584  0.87511893  0.65018791     0.00900
C341        C  0.29447426  0.85422959  0.68592704     0.15900
C342        C  0.33550601  0.86448681  0.70443419     0.25300
C343        C  0.36172759  0.89571505  0.68746997    -0.41000
C344        C  0.34748416  0.91486561  0.65003992     0.32400
C345        C  0.23374101  0.86561649  0.63280202     0.01000
F346        F  0.26953095  0.82438363  0.70346889    -0.13300
F347        F  0.37163621  0.94566462  0.63340572    -0.13800
C348        C  0.22944828  0.84955115  0.59168375     0.15900
C349        C  0.18820152  0.83443870  0.57774954     0.25300
C350        C  0.15059796  0.83509503  0.60477838    -0.40900
C351        C  0.15401879  0.85372075  0.64469421     0.32300
C352        C  0.19536951  0.86895690  0.65866424     0.14000
F353        F  0.26590574  0.84577205  0.56619772    -0.13300
F354        F  0.11819531  0.85458146  0.67119946    -0.13800
F355        F  0.18561366  0.81691952  0.53869349    -0.16100
F356        F  0.19848479  0.88537421  0.69817504    -0.14700
F357        F  0.29185617  0.92501147  0.59676809    -0.14700
F358        F  0.34870955  0.84520682  0.74030581    -0.16100
C359        C  0.80969352  0.12371934  0.65003059     0.14000
C360        C  0.76764353  0.13162169  0.63107469     0.00900
C361        C  0.76616622  0.15494806  0.59410379     0.15900
C362        C  0.80517263  0.17223483  0.57795871     0.25300
C363        C  0.84681359  0.16705535  0.59863199    -0.41000
C364        C  0.84901389  0.14147289  0.63398151     0.32400
C365        C  0.72483423  0.12032111  0.65221565     0.01000
F366        F  0.72632651  0.16359480  0.57525255    -0.13300
F367        F  0.88852073  0.13593056  0.65463379    -0.13800
C368        C  0.71593469  0.13460477  0.69343571     0.15900
C369        C  0.67452452  0.12726475  0.71259437     0.25300
C370        C  0.64082766  0.10540421  0.69111697    -0.40900
C371        C  0.64930590  0.09159602  0.64950489     0.32300
C372        C  0.69099749  0.09890837  0.63029962     0.14000
F373        F  0.74721711  0.15635367  0.71504941    -0.13300
F374        F  0.61835259  0.06929427  0.62815241    -0.13800
F375        F  0.66753626  0.14107943  0.75274553    -0.16100
F376        F  0.69876052  0.08416894  0.59065904    -0.14700
F377        F  0.81237594  0.10009020  0.68502103    -0.14700
F378        F  0.80164144  0.19563829  0.54287471    -0.16100
C379        C  0.29764936  0.14827283  0.66218601     0.14000
C380        C  0.26056191  0.12187596  0.66060467     0.00900
C381        C  0.26653203  0.08145946  0.67266884     0.15900
C382        C  0.30793971  0.06835518  0.68840183     0.25300
C383        C  0.34415251  0.09542707  0.69262719    -0.41000
C384        C  0.33907316  0.13518175  0.67831584     0.32400
C385        C  0.21531570  0.13711511  0.64864300     0.01000
F386        F  0.23151008  0.05527158  0.67179136    -0.13300
F387        F  0.37327931  0.16195384  0.68241055    -0.13800
C388        C  0.19118207  0.11968951  0.61470168     0.15900
C389        C  0.15008069  0.13619804  0.60178582     0.25300
C390        C  0.13258540  0.17047485  0.62246014    -0.40900
C391        C  0.15567597  0.18679853  0.65749054     0.32300
C392        C  0.19637060  0.16996842  0.67081162     0.14000
F393        F  0.20867988  0.08823595  0.59238656    -0.13300
F394        F  0.13960675  0.22008422  0.67779325    -0.13800
F395        F  0.12937921  0.12082408  0.56681611    -0.16100
F396        F  0.21782156  0.18629488  0.70490759    -0.14700
F397        F  0.29329476  0.18712226  0.64926496    -0.14700
F398        F  0.31198778  0.02960803  0.70181422    -0.16100
C399        C  0.80955288  0.89191918  0.39683547     0.14000
C400        C  0.78343607  0.87301949  0.36499937     0.00900
C401        C  0.80075776  0.83828961  0.34475440     0.15900
C402        C  0.84101413  0.82091098  0.35849984     0.25300
C403        C  0.86583970  0.83864186  0.39163352    -0.41000
C404        C  0.85057282  0.87500938  0.40978441     0.32400
C405        C  0.73774969  0.88832392  0.35350612     0.01000
F406        F  0.77814434  0.82056981  0.31213449    -0.13300
F407        F  0.87336033  0.89229519  0.44253746    -0.13800
C408        C  0.73107463  0.92887728  0.34195189     0.15900
C409        C  0.68933910  0.94175066  0.32651626     0.25300
C410        C  0.65325629  0.91451111  0.32235410    -0.40900
C411        C  0.65909343  0.87462405  0.33592199     0.32300
C412        C  0.70075033  0.86171999  0.35174009     0.14000
F413        F  0.76573020  0.95545672  0.34265363    -0.13300
F414        F  0.62541485  0.84742263  0.33106359    -0.13800
F415        F  0.68511877  0.98026312  0.31253957    -0.16100
F416        F  0.70533482  0.82272482  0.36408621    -0.14700
F417        F  0.79411067  0.92528062  0.41736755    -0.14700
F418        F  0.85496769  0.78570247  0.34051850    -0.16100
C419        C  0.19896092  0.88417676  0.38794820     0.14000
C420        C  0.22865582  0.86133807  0.36261813     0.00900
C421        C  0.21786297  0.82096355  0.35327630     0.15900
C422        C  0.17896651  0.80344411  0.36945886     0.25300
C423        C  0.14993288  0.82554169  0.39610700    -0.41000
C424        C  0.15993017  0.86638063  0.40470716     0.32400
C425        C  0.27052547  0.87898415  0.34473836     0.01000
F426        F  0.24584261  0.79794322  0.32923845    -0.13300
F427        F  0.13319322  0.88849586  0.43080578    -0.13800
C428        C  0.30536112  0.89338722  0.37109558     0.15900
C429        C  0.34620881  0.90666800  0.35354507     0.25300
C430        C  0.35281072  0.90590357  0.30924622    -0.40900
C431        C  0.31752630  0.89144217  0.28318102     0.32300
C432        C  0.27707739  0.87849566  0.30066056     0.14000
F433        F  0.30008526  0.89398793  0.41388669    -0.13300
F434        F  0.32182731  0.88993416  0.24026171    -0.13800
F435        F  0.37863997  0.92097272  0.37986559    -0.16100
F436        F  0.24389033  0.86560315  0.27424262    -0.14700
F437        F  0.20776223  0.92363054  0.39642627    -0.14700
F438        F  0.17009483  0.76432717  0.35942578    -0.16100
C439        C  0.71196077  0.09633625  0.35717872     0.14000
C440        C  0.73148034  0.13318110  0.34501389     0.00900
C441        C  0.70705598  0.15915154  0.31832100     0.15900
C442        C  0.66487103  0.14765519  0.30268195     0.25300
C443        C  0.64581738  0.11051473  0.31421365    -0.41000
C444        C  0.66936906  0.08527157  0.34218412     0.32400
C445        C  0.77689764  0.14469738  0.36072012     0.01000
F446        F  0.72434833  0.19539614  0.30685005    -0.13300
F447        F  0.65261206  0.04850794  0.35237540    -0.13800
C448        C  0.81179642  0.15419305  0.33231383     0.15900
C449        C  0.85343849  0.16786152  0.34765484     0.25300
C450        C  0.86081051  0.17206173  0.39150256    -0.40900
C451        C  0.82662204  0.16096497  0.41978366     0.32300
C452        C  0.78512742  0.14745536  0.40459670     0.14000
F453        F  0.80516655  0.15119842  0.28974093    -0.13300
F454        F  0.83237497  0.16615444  0.46224309    -0.13800
F455        F  0.88570178  0.17900476  0.31973431    -0.16100
F456        F  0.75194299  0.13956340  0.43279696    -0.14700
F457        F  0.73523868  0.07006069  0.38175816    -0.14700
F458        F  0.64334341  0.17202576  0.27473192    -0.16100
C459        C  0.21280973  0.18785635  0.35000516     0.14000
C460        C  0.22905733  0.14944022  0.36082095     0.00900
C461        C  0.20321494  0.12485637  0.38764851     0.15900
C462        C  0.16215046  0.13887000  0.40404013     0.25300
C463        C  0.14664943  0.17781813  0.39407419    -0.41000
C464        C  0.17228288  0.20197669  0.36668083     0.32400
C465        C  0.27203959  0.13482073  0.34241528     0.01000
F466        F  0.21793393  0.08741812  0.39813504    -0.13300
F467        F  0.15854173  0.23994517  0.35695540    -0.13800
C468        C  0.30984094  0.12705683  0.36798990     0.15900
C469        C  0.35033785  0.11367013  0.34969694     0.25300
C470        C  0.35365572  0.10794606  0.30539600    -0.40900
C471        C  0.31569832  0.11695216  0.28006037     0.32300
C472        C  0.27555372  0.12979857  0.29838492     0.14000
F473        F  0.30757905  0.13269881  0.41065894    -0.13300
F474        F  0.31682128  0.11273014  0.23714621    -0.13800
F475        F  0.38567331  0.10567843  0.37548465    -0.16100
F476        F  0.23949583  0.13656302  0.27296231    -0.14700
F477        F  0.23699051  0.21226266  0.32420886    -0.14700
F478        F  0.13904959  0.11541193  0.43157188    -0.16100
C479        C  0.65418968  0.71009467  0.12495115     0.14000
C480        C  0.61605298  0.73002163  0.10954704     0.00900
C481        C  0.58016850  0.70735331  0.09328317     0.15900
C482        C  0.58291196  0.66533496  0.09095070     0.25300
C483        C  0.62222210  0.64529894  0.10395206    -0.41000
C484        C  0.65727328  0.66805557  0.12234734     0.32400
C485        C  0.61353877  0.77447007  0.11085248     0.01000
F486        F  0.54240633  0.72596916  0.07962099    -0.13300
F487        F  0.69534777  0.64998260  0.13630686    -0.13800
C488        C  0.61111206  0.79668068  0.07306577     0.15900
C489        C  0.60736729  0.83878462  0.07448402     0.25300
C490        C  0.60695760  0.85913350  0.11375686    -0.40900
C491        C  0.61072436  0.83682101  0.15151352     0.32300
C492        C  0.61355786  0.79479994  0.15001112     0.14000
F493        F  0.61311397  0.77749524  0.03493572    -0.13300
F494        F  0.60960072  0.85543581  0.19003863    -0.13800
F495        F  0.60474367  0.85970715  0.03761946    -0.16100
F496        F  0.61502113  0.77378040  0.18686798    -0.14700
F497        F  0.68917631  0.73154769  0.14104553    -0.14700
F498        F  0.54699500  0.64443209  0.07601254    -0.16100
C499        C  0.57849008  0.29899623  0.08992894     0.14000
C500        C  0.61511551  0.27559170  0.10321593     0.00900
C501        C  0.65540606  0.29468033  0.11466638     0.15900
C502        C  0.65925960  0.33659933  0.11227608     0.25300
C503        C  0.62265407  0.36014595  0.09862754    -0.41000
C504        C  0.58202074  0.34094100  0.08809573     0.32400
C505        C  0.61122677  0.23127813  0.10545391     0.01000
F506        F  0.69156890  0.27254342  0.12670897    -0.13300
F507        F  0.54554989  0.36266041  0.07613602    -0.13800
C508        C  0.60125852  0.20849571  0.06886402     0.15900
C509        C  0.59684148  0.16656642  0.07124254     0.25300
C510        C  0.60262529  0.14680743  0.11023622    -0.40900
C511        C  0.61295856  0.16977645  0.14682040     0.32300
C512        C  0.61721206  0.21163355  0.14437981     0.14000
F513        F  0.59646756  0.22685069  0.03071345    -0.13300
F514        F  0.61715317  0.15208945  0.18538949    -0.13800
F515        F  0.58751298  0.14529467  0.03531555    -0.16100
F516        F  0.62598446  0.23317020  0.18030900    -0.14700
F517        F  0.53921322  0.28123387  0.07871529    -0.14700
F518        F  0.69945340  0.35378170  0.12153369    -0.16100
C519        C  0.57902070  0.79967279  0.93808721     0.14000
C520        C  0.60756874  0.77630631  0.91226789     0.00900
C521        C  0.63160657  0.79554595  0.87976201     0.15900
C522        C  0.62759246  0.83708158  0.87334740     0.25300
C523        C  0.59837555  0.86050103  0.89862640    -0.41000
C524        C  0.57470547  0.84124791  0.93151916     0.32400
C525        C  0.61279374  0.73204555  0.91879453     0.01000
F526        F  0.65813990  0.77384544  0.85303984    -0.13300
F527        F  0.54721170  0.86259764  0.95759076    -0.13800
C528        C  0.57519337  0.70642634  0.92126068     0.15900
C529        C  0.58067237  0.66449181  0.92417565     0.25300
C530        C  0.62378185  0.64744784  0.92374974    -0.40900
C531        C  0.66135545  0.67305383  0.92254395     0.32300
C532        C  0.65590310  0.71486209  0.92076634     0.14000
F533        F  0.53314977  0.72185133  0.91967485    -0.13300
F534        F  0.70357622  0.65780058  0.92444882    -0.13800
F535        F  0.54387177  0.64045294  0.92612671    -0.16100
F536        F  0.69296859  0.73866301  0.92154008    -0.14700
F537        F  0.55533310  0.78244307  0.96993760    -0.14700
F538        F  0.65212172  0.85372545  0.84181432    -0.16100
C539        C  0.63513658  0.20509171  0.91589818     0.14000
C540        C  0.59701546  0.23020442  0.91516207     0.00900
C541        C  0.55436338  0.21240224  0.91240082     0.15900
C542        C  0.54969382  0.17050132  0.91022151     0.25300
C543        C  0.58778794  0.14559951  0.90895008    -0.41000
C544        C  0.63056065  0.16313661  0.91203096     0.32400
C545        C  0.60171674  0.27486575  0.91567096     0.01000
F546        F  0.51727129  0.23570625  0.90899498    -0.13300
F547        F  0.66787682  0.13963620  0.91094371    -0.13800
C548        C  0.62896663  0.29411975  0.88562255     0.15900
C549        C  0.63503322  0.33597574  0.88694986     0.25300
C550        C  0.61420535  0.35959276  0.91871019    -0.40900
C551        C  0.58435763  0.34047762  0.94689171     0.32300
C552        C  0.57849864  0.29858547  0.94558825     0.14000
F553        F  0.64953166  0.27235233  0.85457936    -0.13300
F554        F  0.56137639  0.36203248  0.97648866    -0.13800
F555        F  0.66121023  0.35301982  0.85683541    -0.16100
F556        F  0.55106724  0.28111951  0.97449989    -0.14700
F557        F  0.67680093  0.22124017  0.91982872    -0.14700
F558        F  0.50797111  0.15452297  0.90622755    -0.16100
C559        C  0.90487793  0.60288580  0.72417687     0.14000
C560        C  0.89318050  0.63573916  0.75043311     0.00900
C561        C  0.89102786  0.67454265  0.73291459     0.15900
C562        C  0.89713878  0.68015666  0.68939200     0.25300
C563        C  0.90538491  0.64690548  0.66235588    -0.41000
C564        C  0.91108297  0.60844981  0.68045110     0.32400
C565        C  0.87631973  0.62896550  0.79405376     0.01000
F566        F  0.88163795  0.70696615  0.75798072    -0.13300
F567        F  0.92087636  0.57598915  0.65558937    -0.13800
C568        C  0.90336467  0.61202356  0.82598927     0.15900
C569        C  0.88478838  0.60192833  0.86552474     0.25300
C570        C  0.83882342  0.60837164  0.87329135    -0.40900
C571        C  0.81276458  0.62768198  0.84206556     0.32300
C572        C  0.83121113  0.63759477  0.80289349     0.14000
F573        F  0.94729675  0.60412173  0.81840214    -0.13300
F574        F  0.76842678  0.63486732  0.84853233    -0.13800
F575        F  0.91099767  0.58339111  0.89478208    -0.16100
F576        F  0.80411062  0.65330506  0.77243517    -0.14700
F577        F  0.90772528  0.56508632  0.74042972    -0.14700
F578        F  0.89538546  0.71831705  0.67403281    -0.16100
C579        C  0.90207498  0.59585160  0.19575047     0.14000
C580        C  0.88182593  0.62543635  0.22168344     0.00900
C581        C  0.84585337  0.64804111  0.20531591     0.15900
C582        C  0.82801100  0.63885243  0.16537130     0.25300
C583        C  0.84564305  0.60693436  0.14100909    -0.41000
C584        C  0.88406467  0.58659859  0.15564144     0.32400
C585        C  0.89428403  0.62983056  0.26718998     0.05200
F586        F  0.82534697  0.67666733  0.22950258    -0.13300
F587        F  0.90147549  0.55524552  0.13310946    -0.13800
C588        C  0.90487861  0.66797270  0.28428277     0.15900
C589        C  0.90997194  0.67312238  0.32810694     0.25300
C590        C  0.90512818  0.64010894  0.35562968    -0.40900
C591        C  0.89691200  0.60160469  0.33855757     0.32300
C592        C  0.89102651  0.59652985  0.29469467     0.14000
F593        F  0.90967855  0.70040659  0.25852625    -0.13300
F594        F  0.89236651  0.56930862  0.36454586    -0.13800
F595        F  0.92002462  0.71041095  0.34359999    -0.16100
F596        F  0.87971844  0.55948896  0.27935990    -0.14700
F597        F  0.93773556  0.57443443  0.21027105    -0.14700
F598        F  0.79110845  0.65910818  0.15182336    -0.16100
C599        C  0.92595787  0.36619340  0.72999240     0.14000
C600        C  0.88175772  0.37126566  0.74463567     0.00900
C601        C  0.84645747  0.37193685  0.71471270     0.15900
C602        C  0.85519634  0.36763735  0.67122774     0.25300
C603        C  0.89938972  0.36376888  0.65670038    -0.41000
C604        C  0.93468908  0.36266900  0.68642982     0.32400
C605        C  0.87210247  0.37708708  0.79071173     0.01000
F606        F  0.80351563  0.37807695  0.72748012    -0.13300
F607        F  0.97759020  0.35696328  0.67338307    -0.13800
C608        C  0.89270408  0.40851740  0.81402219     0.15900
C609        C  0.87792467  0.41822611  0.85512463     0.25300
C610        C  0.84195058  0.39705040  0.87324167    -0.40900
C611        C  0.82372446  0.36386430  0.85128875     0.32300
C612        C  0.83909127  0.35357484  0.81068201     0.14000
F613        F  0.92453377  0.43198568  0.79578471    -0.13300
F614        F  0.78914472  0.34281540  0.86828959    -0.13800
F615        F  0.89576107  0.45079064  0.87539615    -0.16100
F616        F  0.82024132  0.32169836  0.79002027    -0.14700
F617        F  0.96065426  0.36403158  0.75788173    -0.14700
F618        F  0.82058411  0.36858024  0.64316000    -0.16100
C619        C  0.89949800  0.40745527  0.19326123     0.14000
C620        C  0.88133010  0.37580347  0.21747110     0.00900
C621        C  0.84781842  0.35127183  0.19902789     0.15900
C622        C  0.82966520  0.36103127  0.15932243     0.25300
C623        C  0.84443244  0.39542396  0.13755803    -0.41000
C624        C  0.88067654  0.41764861  0.15400124     0.32400
C625        C  0.89288141  0.37216879  0.26342418     0.01000
F626        F  0.82978716  0.32002401  0.22084477    -0.13300
F627        F  0.89476734  0.45171757  0.13433912    -0.13800
C628        C  0.89018587  0.40647505  0.29017053     0.15900
C629        C  0.89911794  0.40352536  0.33366963     0.25300
C630        C  0.90914159  0.36604699  0.35167944    -0.40900
C631        C  0.91182885  0.33164676  0.32530306     0.32300
C632        C  0.90429490  0.33473360  0.28148807     0.14000
F633        F  0.87701679  0.44271460  0.27450534    -0.13300
F634        F  0.92263109  0.29513045  0.34187582    -0.13800
F635        F  0.89603962  0.43704057  0.35854742    -0.16100
F636        F  0.90851179  0.30120189  0.25677358    -0.14700
F637        F  0.93361630  0.43025265  0.20897945    -0.14700
F638        F  0.79526674  0.33863486  0.14351001    -0.16100
C639        C  0.36058577  0.79350802  0.87073885     0.14000
C640        C  0.38700059  0.76832728  0.89643689     0.00900
C641        C  0.41991306  0.78599124  0.92265163     0.15900
C642        C  0.42700958  0.82773022  0.92256429     0.25300
C643        C  0.40204624  0.85295446  0.89542683    -0.41000
C644        C  0.36790641  0.83528842  0.87028702     0.32400
C645        C  0.38015884  0.72379445  0.89663543     0.01000
F646        F  0.44532745  0.76277147  0.94869245    -0.13300
F647        F  0.34171366  0.85828076  0.84468933    -0.13800
C648        C  0.41670179  0.69747290  0.89043403     0.15900
C649        C  0.41160937  0.65577419  0.89557857     0.25300
C650        C  0.36938068  0.63950260  0.90484161    -0.40900
C651        C  0.33221812  0.66543158  0.90849517     0.32300
C652        C  0.33764623  0.70725487  0.90499798     0.14000
F653        F  0.45727353  0.71223321  0.87901141    -0.13300
F654        F  0.29106543  0.65047148  0.91793125    -0.13800
F655        F  0.44783611  0.63123567  0.89128636    -0.16100
F656        F  0.30168400  0.73162238  0.91163373    -0.14700
F657        F  0.32855461  0.77755744  0.84492379    -0.14700
F658        F  0.45856591  0.84295430  0.94914186    -0.16100
C659        C  0.40795411  0.28985484  0.92338168     0.14000
C660        C  0.37018693  0.26708570  0.91131735     0.00900
C661        C  0.33098512  0.28749644  0.89890342     0.15900
C662        C  0.32945363  0.32973542  0.89919776     0.25300
C663        C  0.36702799  0.35249891  0.91229603    -0.41000
C664        C  0.40664841  0.33201598  0.92331678     0.32400
C665        C  0.37269605  0.22225311  0.90981722     0.01000
F666        F  0.29358552  0.26653872  0.88779264    -0.13300
F667        F  0.44447684  0.35267786  0.93361955    -0.13800
C668        C  0.38784574  0.20021825  0.94516727     0.15900
C669        C  0.39547368  0.15856666  0.94188975     0.25300
C670        C  0.38729922  0.13806292  0.90339261    -0.40900
C671        C  0.36892897  0.15969590  0.86905794     0.32300
C672        C  0.36233296  0.20136775  0.87207408     0.14000
F673        F  0.39558298  0.21912104  0.98283400    -0.13300
F674        F  0.35953025  0.14109866  0.83153658    -0.13800
F675        F  0.41086610  0.13839296  0.97637163    -0.16100
F676        F  0.34806130  0.22159273  0.83717715    -0.14700
F677        F  0.44645529  0.27127216  0.93504137    -0.14700
F678        F  0.29058235  0.34815062  0.88798817    -0.16100
C679        C  0.38347744  0.70545716  0.12877475     0.14000
C680        C  0.39263372  0.72860696  0.09246318     0.00900
C681        C  0.39375625  0.70948130  0.05258804     0.15900
C682        C  0.38640661  0.66795238  0.04898636     0.25300
C683        C  0.37771669  0.64464431  0.08527518    -0.41000
C684        C  0.37577540  0.66384797  0.12516573     0.32400
C685        C  0.39950170  0.77286624  0.09592420     0.01000
F686        F  0.40028598  0.73133582  0.01685335    -0.13300
F687        F  0.36702137  0.64228564  0.16072160    -0.13800
C688        C  0.43897830  0.79092046  0.08080430     0.15900
C689        C  0.44583165  0.83255003  0.08528115     0.25300
C690        C  0.41285892  0.85708133  0.10440979    -0.40900
C691        C  0.37251647  0.83902920  0.11783784     0.32300
C692        C  0.36610302  0.79739674  0.11385453     0.14000
F693        F  0.47130427  0.76811555  0.06229215    -0.13300
F694        F  0.33870601  0.86154994  0.13435700    -0.13800
F695        F  0.48529152  0.84844731  0.07199512    -0.16100
F696        F  0.32670914  0.78107157  0.12679183    -0.14700
F697        F  0.38235942  0.72312348  0.16779219    -0.14700
F698        F  0.38564665  0.65098397  0.00967332    -0.16100
C699        C  0.45091549  0.21172133  0.11217965     0.14000
C700        C  0.41039975  0.22966811  0.09967525     0.00900
C701        C  0.37390644  0.20516945  0.08803738     0.15900
C702        C  0.37778018  0.16311268  0.08918748     0.25300
C703        C  0.41838249  0.14516211  0.10130519    -0.41000
C704        C  0.45500888  0.16967048  0.11274898     0.32400
C705        C  0.40585599  0.27395878  0.09845264     0.01000
F706        F  0.33448769  0.22210315  0.07585635    -0.13300
F707        F  0.49389705  0.15289487  0.12658805    -0.13800
C708        C  0.42237771  0.29545112  0.06371537     0.15900
C709        C  0.41396659  0.33680235  0.06008863     0.25300
C710        C  0.38850659  0.35743931  0.09116511    -0.40900
C711        C  0.37426094  0.33598168  0.12726311     0.32300
C712        C  0.38273903  0.29454126  0.13070041     0.14000
F713        F  0.44539068  0.27604055  0.03252756    -0.13300
F714        F  0.35204628  0.35481388  0.15928836    -0.13800
F715        F  0.42955743  0.35610625  0.02530119    -0.16100
F716        F  0.36784798  0.27428178  0.16526294    -0.14700
F717        F  0.48583399  0.23487959  0.12533842    -0.14700
F718        F  0.34191085  0.13984869  0.07869327    -0.16100
C719        C  0.13976771  0.62576791  0.72059804     0.14000
C720        C  0.10415171  0.62690801  0.74985664     0.00900
C721        C  0.06020895  0.63252450  0.73490841     0.15900
C722        C  0.05205115  0.63687074  0.69134927     0.25300
C723        C  0.08773178  0.63565014  0.66213983    -0.41000
C724        C  0.13163507  0.63044687  0.67713516     0.32400
C725        C  0.11344610  0.62112271  0.79567199     0.01000
F726        F  0.02538738  0.63451582  0.76254418    -0.13300
F727        F  0.16650257  0.62879506  0.64952794    -0.13800
C728        C  0.14217022  0.64791145  0.81728395     0.15900
C729        C  0.15899274  0.63806175  0.85739118     0.25300
C730        C  0.14695791  0.60154571  0.87667202    -0.40900
C731        C  0.11520628  0.57638280  0.85670279     0.32300
C732        C  0.09843795  0.58618387  0.81643619     0.14000
F733        F  0.15614050  0.68237910  0.79830569    -0.13300
F734        F  0.10434363  0.54021526  0.87395268    -0.13800
F735        F  0.18989985  0.66259341  0.87597030    -0.16100
F736        F  0.07088608  0.55972363  0.79610707    -0.14700
F737        F  0.18239303  0.61913200  0.73412810    -0.14700
F738        F  0.00949797  0.64370256  0.67787317    -0.16100
C739        C  0.09879063  0.59902739  0.19665503     0.14000
C740        C  0.12525174  0.62062702  0.22613553     0.00900
C741        C  0.16734561  0.63518201  0.21333013     0.15900
C742        C  0.18393297  0.62599194  0.17301017     0.25300
C743        C  0.15908205  0.60181130  0.14466485    -0.41000
C744        C  0.11563625  0.58950398  0.15620914     0.32400
C745        C  0.11113094  0.62520979  0.27116476     0.01000
F746        F  0.19399661  0.65578798  0.24095833    -0.13300
F747        F  0.09097496  0.56554948  0.12998404    -0.13800
C748        C  0.10131216  0.59092238  0.29573895     0.15900
C749        C  0.09180082  0.59485609  0.33914420     0.25300
C750        C  0.09272069  0.63302349  0.35884540    -0.40900
C751        C  0.10186619  0.66731467  0.33416407     0.32300
C752        C  0.11080404  0.66346861  0.29077735     0.14000
F753        F  0.10285364  0.55341513  0.27811425    -0.13300
F754        F  0.10112504  0.70480681  0.35182710    -0.13800
F755        F  0.08344254  0.56121296  0.36223157    -0.16100
F756        F  0.11915618  0.69723143  0.26786611    -0.14700
F757        F  0.05735710  0.58578757  0.20768360    -0.14700
F758        F  0.22581113  0.63858321  0.16257002    -0.16100
C759        C  0.08841532  0.33784901  0.73266819     0.14000
C760        C  0.09743150  0.37574032  0.75113380     0.00900
C761        C  0.09831829  0.41013941  0.72488356     0.15900
C762        C  0.09199163  0.40627977  0.68089193     0.25300
C763        C  0.08603390  0.36796444  0.66247022    -0.41000
C764        C  0.08331086  0.33393570  0.68880887     0.32400
C765        C  0.11046601  0.37863502  0.79667108     0.01000
F766        F  0.10785422  0.44713643  0.74140425    -0.13300
F767        F  0.07540305  0.29670392  0.67210279    -0.13800
C768        C  0.14552844  0.35430925  0.81226270     0.15900
C769        C  0.16282965  0.36085300  0.85290129     0.25300
C770        C  0.14658176  0.39257582  0.87824197    -0.40900
C771        C  0.10909525  0.41470066  0.86439620     0.32300
C772        C  0.09095267  0.40758203  0.82391492     0.14000
F773        F  0.16592375  0.32659758  0.78685407    -0.13300
F774        F  0.09286657  0.44574672  0.88817440    -0.13800
F775        F  0.19836182  0.33851680  0.86610699    -0.16100
F776        F  0.05591320  0.43041875  0.81049228    -0.14700
F777        F  0.08536426  0.30433265  0.75710452    -0.14700
F778        F  0.09407691  0.43962758  0.65610285    -0.16100
C779        C  0.07265351  0.39102079  0.29074669     0.14000
C780        C  0.11612967  0.38736647  0.27430821     0.00900
C781        C  0.15191151  0.37830843  0.30176396     0.15900
C782        C  0.14416180  0.37179160  0.34494585     0.25300
C783        C  0.10052288  0.37469277  0.36142308    -0.41000
C784        C  0.06486641  0.38472263  0.33397737     0.32400
C785        C  0.12470468  0.39272781  0.22853362     0.01000
F786        F  0.19446485  0.37606772  0.28664925    -0.13300
F787        F  0.02212435  0.38655959  0.34846068    -0.13800
C788        C  0.12074449  0.43105384  0.21007324     0.15900
C789        C  0.13585897  0.43735732  0.16864162     0.25300
C790        C  0.15500837  0.40538987  0.14527508    -0.40900
C791        C  0.15655681  0.36664703  0.16282775     0.32300
C792        C  0.14117407  0.36026695  0.20416135     0.14000
F793        F  0.10558011  0.46294745  0.23327300    -0.13300
F794        F  0.17559265  0.33564576  0.14095358    -0.13800
F795        F  0.13550302  0.47538103  0.15267768    -0.16100
F796        F  0.14438239  0.32284367  0.22127459    -0.14700
F797        F  0.03757450  0.39944183  0.26469109    -0.14700
F798        F  0.17938778  0.36308749  0.37070589    -0.16100
loop_ 
_geom_bond_atom_site_label_1 
_geom_bond_atom_site_label_2 
_geom_bond_distance 
_geom_bond_site_symmetry_2 
_ccdc_geom_bond_type 
C1           N19   1.351       .  A
C1           C38   1.466       .  S
C1          C710   1.488       .  S
N2           N19   1.324       .  A
N2           N24   1.316       .  A
N2          Co39   2.084       .  S
C3           N28   1.348       .  A
C3           C41   1.470       .  S
C3           H48   1.081       .  S
H4           C45   1.081       .  S
C5           N29   1.332       .  A
C5            C9   1.453       .  S
C5           H34   1.082       .  S
Co6          N24   2.084       .  S
Co6          N14   2.080       .  S
Co6          N46   2.085       .  S
Co6          N22   2.077       .  S
Co6         Cl50   2.418       .  S
N7           C45   1.343       .  A
N7           N14   1.321       .  A
N7           Co8   2.091       .  S
Co8          N11   2.093   1_554  S
Co8          N28   2.097       .  S
Co8          N15   2.102   1_554  S
Co8         Cl50   2.488       .  S
C9           N47   1.355       .  A
C9          C770   1.471       .  S
N10          N17   1.316       .  A
N10          N40   1.324       .  A
N10         Co43   2.083       .  S
N11          N29   1.320       .  A
N11          N47   1.328       .  A
N12          C41   1.345       .  A
N12          N22   1.318       .  A
H13          C38   1.080       .  S
N14          N35   1.320       .  A
N15          N33   1.321       .  A
N15          N20   1.329       .  A
C16          N20   1.356       .  A
C16          C44   1.451       .  S
C16         C730   1.471       .  S
N17          C32   1.339       .  A
N17         Co39   2.079   1_556  S
C18          N46   1.342       .  A
C18          C21   1.460       .  S
C18          H52   1.081       .  S
C21          N42   1.349       .  A
C21         C683   1.478       .  S
N22          N28   1.321       .  A
N23          C49   1.342       .  A
N23          N25   1.317       .  A
N23         Co39   2.081   1_556  S
N24          C38   1.342       .  A
N25          N53   1.324       .  A
N25         Co43   2.081       .  S
H26          C49   1.081       .  S
H27          C44   1.082       .  S
N29         Co43   2.073       .  S
N30          N42   1.323       .  A
N30          N46   1.319       .  A
N30         Co39   2.082       .  S
C31          N35   1.346       .  A
C31          C45   1.465       .  S
C31         C790   1.466       .  S
C32          C51   1.463       .  S
C32          H36   1.077       .  S
N33          C44   1.333       .  A
N33         Co43   2.073       .  S
C37          N53   1.349       .  A
C37          C49   1.460       .  S
C37         C650   1.473       .  S
Co39        Cl50   2.479       .  S
N40          C51   1.351       .  A
C41         C743   1.478       .  S
Co43        Cl50   2.414   1_556  S
C51         C663   1.483       .  S
C54          N72   1.356       .  A
C54          C91   1.454       .  S
C54         C623   1.475       .  S
N55          N72   1.329       .  A
N55          N77   1.321       .  A
N55         Co92   2.103       .  S
C56          N81   1.338       .  A
C56          C94   1.461       .  S
C56         H101   1.080       .  S
H57          C98   1.080       .  S
C58          N82   1.339       .  A
C58          C62   1.465       .  S
C58          H87   1.079       .  S
Co59         N77   2.079       .  S
Co59         N67   2.078       .  S
Co59         N99   2.074       .  S
Co59         N75   2.082       .  S
Co59       Cl103   2.418       .  S
N60          C98   1.336       .  A
N60          N67   1.317       .  A
N60         Co61   2.069       .  S
Co61         N64   2.085   1_554  S
Co61         N81   2.074       .  S
Co61         N68   2.079   1_554  S
Co61       Cl103   2.483       .  S
C62         N100   1.352       .  A
C62         C550   1.489       .  S
N63          N70   1.321       .  A
N63          N93   1.321       .  A
N63         Co96   2.082       .  S
N64          N82   1.316       .  A
N64         N100   1.324       .  A
N65          C94   1.351       .  A
N65          N75   1.323       .  A
H66          C91   1.082       .  S
N67          N88   1.322       .  A
N68          N86   1.317       .  A
N68          N73   1.325       .  A
C69          N73   1.350       .  A
C69          C97   1.459       .  S
C69         C530   1.475       .  S
N70          C85   1.347       .  A
N70         Co92   2.102   1_556  S
C71          N99   1.333       .  A
C71          C74   1.452       .  S
C71         H105   1.082       .  S
C74          N95   1.357       .  A
C74         C583   1.476       .  S
N75          N81   1.317       .  A
N76         C102   1.349       .  A
N76          N78   1.321       .  A
N76         Co92   2.104   1_556  S
N77          C91   1.335       .  A
N78         N106   1.317       .  A
N78         Co96   2.072       .  S
H79         C102   1.081       .  S
H80          C97   1.081       .  S
N82         Co96   2.076       .  S
N83          N95   1.330       .  A
N83          N99   1.321       .  A
N83         Co92   2.106       .  S
C84          N88   1.350       .  A
C84          C98   1.458       .  S
C84         C503   1.475       .  S
C85         C104   1.469       .  S
C85          H89   1.081       .  S
N86          C97   1.338       .  A
N86         Co96   2.082       .  S
C90         N106   1.343       .  A
C90         C102   1.474       .  S
C90         C570   1.481       .  S
Co92       Cl103   2.489       .  S
N93         C104   1.346       .  A
C94         C483   1.479       .  S
Co96       Cl103   2.416   1_556  S
C104        C610   1.476       .  S
C107        N125   1.349       .  A
C107        C144   1.455       .  S
C107        C703   1.467       .  S
N108        N125   1.324       .  A
N108        N130   1.316       .  A
N108       Co145   2.082       .  S
C109        N134   1.356       .  A
C109        C147   1.483       .  S
C109        H154   1.081       .  S
H110        C151   1.081       .  S
C111        N135   1.332       .  A
C111        C115   1.446       .  S
C111        H140   1.082       .  S
Co112       N130   2.072       .  S
Co112       N120   2.066       .  S
Co112       N152   2.070   1_545  S
Co112       N128   2.065   1_545  S
Co112      Cl156   2.405       .  S
N113        C151   1.354       .  A
N113        N120   1.322       .  A
N113       Co114   2.122       .  S
Co114       N117   2.120       .  S
Co114       N134   2.128   1_545  S
Co114       N121   2.131   1_545  S
Co114      Cl156   2.502       .  S
C115        N153   1.361       .  A
C115        C443   1.475       .  S
N116        N123   1.316       .  A
N116        N146   1.321       .  A
N116       Co149   2.070       .  S
N117        N135   1.322       .  A
N117        N153   1.331       .  A
N118        C147   1.340       .  A
N118        N128   1.316       .  A
H119        C144   1.081       .  S
N120        N141   1.316       .  A
N121        N139   1.323       .  A
N121        N126   1.334       .  A
C122        N126   1.362       .  A
C122        C150   1.447       .  S
C122        C410   1.482       .  S
N123        C138   1.342       .  A
N123       Co145   2.079       .  S
C124        N152   1.337       .  A
C124        C127   1.458       .  S
C124        H158   1.076       .  S
C127        N148   1.354       .  A
C127        C690   1.485       .  S
N128        N134   1.323       .  A
N129        C155   1.341       .  A
N129        N131   1.316       .  A
N129       Co145   2.075   1_565  S
N130        C144   1.339       .  A
N131        N159   1.322       .  A
N131       Co149   2.074   1_565  S
H132        C155   1.080       .  S
H133        C150   1.082       .  S
N135       Co149   2.066       .  S
N136        N148   1.327       .  A
N136        N152   1.315       .  A
N136       Co145   2.090   1_565  S
C137        N141   1.342       .  A
C137        C151   1.482       .  S
C137        C470   1.496       .  S
C138        C157   1.461       .  S
C138        H142   1.081       .  S
N139        C150   1.331       .  A
N139       Co149   2.065   1_565  S
C143        N159   1.349       .  A
C143        C155   1.460       .  S
C143        C490   1.472       .  S
Co145      Cl156   2.496       .  S
N146        C157   1.347       .  A
C147        C430   1.495       .  S
Co149      Cl156   2.404       .  S
C157        C510   1.475       .  S
C160        N178   1.360       .  A
C160        C197   1.450       .  S
C160        C383   1.479       .  S
N161        N178   1.332       .  A
N161        N183   1.322       .  A
N161       Co198   2.117       .  S
C162        N187   1.343       .  A
C162        C200   1.470       .  S
C162        H207   1.078       .  S
H163        C204   1.081       .  S
C164        N188   1.340       .  A
C164        C168   1.457       .  S
C164        H193   1.081       .  S
Co165       N183   2.068   1_565  S
Co165       N173   2.074   1_565  S
Co165       N205   2.064       .  S
Co165       N181   2.075       .  S
Co165      Cl209   2.415   1_565  S
N166        C204   1.344       .  A
N166        N173   1.317       .  A
N166       Co167   2.089       .  S
Co167       N170   2.086       .  S
Co167       N187   2.089   1_545  S
Co167       N174   2.083   1_545  S
Co167      Cl209   2.479       .  S
C168        N206   1.351       .  A
C168        C543   1.472       .  S
N169        N176   1.323       .  A
N169        N199   1.318       .  A
N169       Co202   2.074       .  S
N170        N188   1.318       .  A
N170        N206   1.325       .  A
N171        C200   1.350       .  A
N171        N181   1.323       .  A
H172        C197   1.082       .  S
N173        N194   1.321       .  A
N174        N192   1.316       .  A
N174        N179   1.323       .  A
C175        N179   1.352       .  A
C175        C203   1.466       .  S
C175        C523   1.489       .  S
N176        C191   1.349       .  A
N176       Co198   2.110       .  S
C177        N205   1.331       .  A
C177        C180   1.450       .  S
C177        H211   1.082       .  S
C180        N201   1.357       .  A
C180        C343   1.474       .  S
N181        N187   1.315       .  A
N182        C208   1.348       .  A
N182        N184   1.322       .  A
N182       Co198   2.104   1_565  S
N183        C197   1.332       .  A
N184        N212   1.320       .  A
N184       Co202   2.079   1_565  S
H185        C208   1.081       .  S
H186        C203   1.078       .  S
N188       Co202   2.079       .  S
N189        N201   1.329       .  A
N189        N205   1.320       .  A
N189       Co198   2.105   1_565  S
C190        N194   1.348       .  A
C190        C204   1.467       .  S
C190        C670   1.483       .  S
C191        C210   1.475       .  S
C191        H195   1.081       .  S
N192        C203   1.339       .  A
N192       Co202   2.075   1_565  S
C196        N212   1.344       .  A
C196        C208   1.470       .  S
C196        C323   1.478       .  S
Co198      Cl209   2.495       .  S
N199        C210   1.343       .  A
C200        C643   1.493       .  S
Co202      Cl209   2.417       .  S
C210        C370   1.484       .  S
C213        N231   1.349       .  A
C213        C250   1.460       .  S
C213        C783   1.477       .  S
N214        N231   1.324       .  A
N214        N236   1.318       .  A
N214       Co251   2.082       .  S
C215        N240   1.346       .  A
C215        C253   1.470       .  S
C215        H260   1.082       .  S
H216        C257   1.081       .  S
C217        N241   1.332       .  A
C217        C221   1.451       .  S
C217        H246   1.082       .  S
Co218       N236   2.087       .  S
Co218       N226   2.065       .  S
Co218       N258   2.071       .  S
Co218       N234   2.083       .  S
Co218      Cl262   2.416   1_455  S
N219        C257   1.353       .  A
N219        N226   1.322       .  A
N219       Co220   2.120   1_455  S
Co220       N223   2.113       .  S
Co220       N240   2.105   1_655  S
Co220       N227   2.121       .  S
Co220      Cl262   2.499       .  S
C221        N259   1.360       .  A
C221        C450   1.476       .  S
N222        N229   1.316       .  A
N222        N252   1.323       .  A
N222       Co255   2.071       .  S
N223        N241   1.321       .  A
N223        N259   1.331       .  A
N224        C253   1.345       .  A
N224        N234   1.320       .  A
H225        C250   1.081       .  S
N226        N247   1.318       .  A
N227        N245   1.320       .  A
N227        N232   1.333       .  A
C228        N232   1.361       .  A
C228        C256   1.451       .  S
C228        C363   1.486       .  S
N229        C244   1.345       .  A
N229       Co251   2.089   1_655  S
C230        N258   1.336       .  A
C230        C233   1.456       .  S
C230        H264   1.081       .  S
C233        N254   1.351       .  A
C233        C763   1.474       .  S
N234        N240   1.323       .  A
N235        C261   1.340       .  A
N235        N237   1.318       .  A
N235       Co251   2.080   1_655  S
N236        C250   1.342       .  A
N237        N265   1.327       .  A
N237       Co255   2.090       .  S
H238        C261   1.081       .  S
H239        C256   1.082       .  S
N241       Co255   2.075       .  S
N242        N254   1.327       .  A
N242        N258   1.316       .  A
N242       Co251   2.089       .  S
C243        N247   1.340       .  A
C243        C257   1.475       .  S
C243        C463   1.480       .  S
C244        C263   1.462       .  S
C244        H248   1.080       .  S
N245        C256   1.330       .  A
N245       Co255   2.063       .  S
C249        N265   1.351       .  A
C249        C261   1.457       .  S
C249        C603   1.477       .  S
Co251      Cl262   2.484   1_455  S
N252        C263   1.346       .  A
C253        C390   1.474       .  S
Co255      Cl262   2.409       .  S
C263        C630   1.475       .  S
C266        N284   1.360       .  A
C266        C303   1.452       .  S
C266        C423   1.489       .  S
N267        N284   1.333       .  A
N267        N289   1.322       .  A
N267       Co304   2.120       .  S
C268        N293   1.341       .  A
C268        C306   1.456       .  S
C268        H313   1.080       .  S
H269        C310   1.081       .  S
C270        N294   1.337       .  A
C270        C274   1.455       .  S
C270        H299   1.081       .  S
Co271       N289   2.073       .  S
Co271       N279   2.083       .  S
Co271       N311   2.067       .  S
Co271       N287   2.085       .  S
Co271      Cl315   2.411   1_455  S
N272        C310   1.345       .  A
N272        N279   1.317       .  A
N272       Co273   2.084   1_455  S
Co273       N276   2.085       .  S
Co273       N293   2.079   1_655  S
Co273       N280   2.084       .  S
Co273      Cl315   2.492       .  S
C274        N312   1.351       .  A
C274        C590   1.474       .  S
N275        N282   1.323       .  A
N275        N305   1.320       .  A
N275       Co308   2.083       .  S
N276        N294   1.317       .  A
N276        N312   1.326       .  A
N277        C306   1.351       .  A
N277        N287   1.326       .  A
H278        C303   1.082       .  S
N279        N300   1.323       .  A
N280        N298   1.316       .  A
N280        N285   1.326       .  A
C281        N285   1.349       .  A
C281        C309   1.462       .  S
C281        C563   1.484       .  S
N282        C297   1.348       .  A
N282       Co304   2.107   1_655  S
C283        N311   1.331       .  A
C283        C286   1.451       .  S
C283        H317   1.082       .  S
C286        N307   1.356       .  A
C286        C350   1.473       .  S
N287        N293   1.317       .  A
N288        C314   1.353       .  A
N288        N290   1.322       .  A
N288       Co304   2.119   1_655  S
N289        C303   1.333       .  A
N290        N318   1.317       .  A
N290       Co308   2.069       .  S
H291        C314   1.082       .  S
H292        C309   1.076       .  S
N294       Co308   2.074       .  S
N295        N307   1.329       .  A
N295        N311   1.322       .  A
N295       Co304   2.108       .  S
C296        N300   1.349       .  A
C296        C310   1.461       .  S
C296        C750   1.478       .  S
C297        C316   1.471       .  S
C297        H301   1.082       .  S
N298        C309   1.341       .  A
N298       Co308   2.083       .  S
C302        N318   1.342       .  A
C302        C314   1.476       .  S
C302        C330   1.482       .  S
Co304      Cl315   2.494   1_455  S
N305        C316   1.344       .  A
C306        C723   1.475       .  S
Co308      Cl315   2.411       .  S
C316        C403   1.478       .  S
C319        C320   1.408       .  A
C319        C324   1.405       .  A
C319        F337   1.358       .  S
C320        C325   1.488       .  S
C320        C321   1.406       .  A
C321        C322   1.399       .  A
C321        F326   1.358       .  S
C322        C323   1.405       .  A
C322        F338   1.358       .  S
C323        C324   1.407       .  A
C324        F327   1.358       .  S
C325        C328   1.411       .  A
C325        C332   1.402       .  A
C328        C329   1.407       .  A
C328        F333   1.358       .  S
C329        C330   1.404       .  A
C329        F335   1.357       .  S
C330        C331   1.411       .  A
C331        C332   1.397       .  A
C331        F334   1.359       .  S
C332        F336   1.358       .  S
C339        C340   1.407       .  A
C339        C344   1.403       .  A
C339        F357   1.358       .  S
C340        C345   1.482       .  S
C340        C341   1.404       .  A
C341        C342   1.395       .  A
C341        F346   1.358       .  S
C342        C343   1.406       .  A
C342        F358   1.359       .  S
C343        C344   1.407       .  A
C344        F347   1.357       .  S
C345        C348   1.402       .  A
C345        C352   1.410       .  A
C348        C349   1.397       .  A
C348        F353   1.358       .  S
C349        C350   1.409       .  A
C349        F355   1.359       .  S
C350        C351   1.400       .  A
C351        C352   1.401       .  A
C351        F354   1.357       .  S
C352        F356   1.358       .  S
C359        C360   1.413       .  A
C359        C364   1.408       .  A
C359        F377   1.358       .  S
C360        C365   1.490       .  S
C360        C361   1.402       .  A
C361        C362   1.395       .  A
C361        F366   1.358       .  S
C362        C363   1.412       .  A
C362        F378   1.357       .  S
C363        C364   1.405       .  A
C364        F367   1.357       .  S
C365        C368   1.405       .  A
C365        C372   1.410       .  A
C368        C369   1.398       .  A
C368        F373   1.358       .  S
C369        C370   1.408       .  A
C369        F375   1.358       .  S
C370        C371   1.409       .  A
C371        C372   1.406       .  A
C371        F374   1.357       .  S
C372        F376   1.358       .  S
C379        C380   1.411       .  A
C379        C384   1.404       .  A
C379        F397   1.358       .  S
C380        C385   1.489       .  S
C380        C381   1.405       .  A
C381        C382   1.399       .  A
C381        F386   1.358       .  S
C382        C383   1.409       .  A
C382        F398   1.359       .  S
C383        C384   1.402       .  A
C384        F387   1.357       .  S
C385        C388   1.408       .  A
C385        C392   1.408       .  A
C388        C389   1.402       .  A
C388        F393   1.357       .  S
C389        C390   1.406       .  A
C389        F395   1.358       .  S
C390        C391   1.405       .  A
C391        C392   1.400       .  A
C391        F394   1.358       .  S
C392        F396   1.358       .  S
C399        C400   1.412       .  A
C399        C404   1.406       .  A
C399        F417   1.357       .  S
C400        C405   1.498       .  S
C400        C401   1.410       .  A
C401        C402   1.400       .  A
C401        F406   1.358       .  S
C402        C403   1.404       .  A
C402        F418   1.358       .  S
C403        C404   1.406       .  A
C404        F407   1.358       .  S
C405        C408   1.407       .  A
C405        C412   1.413       .  A
C408        C409   1.402       .  A
C408        F413   1.358       .  S
C409        C410   1.410       .  A
C409        F415   1.357       .  S
C410        C411   1.401       .  A
C411        C412   1.405       .  A
C411        F414   1.357       .  S
C412        F416   1.358       .  S
C419        C420   1.410       .  A
C419        C424   1.410       .  A
C419        F437   1.357       .  S
C420        C425   1.492       .  S
C420        C421   1.404       .  A
C421        C422   1.396       .  A
C421        F426   1.358       .  S
C422        C423   1.409       .  A
C422        F438   1.357       .  S
C423        C424   1.409       .  A
C424        F427   1.357       .  S
C425        C428   1.410       .  A
C425        C432   1.402       .  A
C428        C429   1.410       .  A
C428        F433   1.357       .  S
C429        C430   1.409       .  A
C429        F435   1.356       .  S
C430        C431   1.415       .  A
C431        C432   1.396       .  A
C431        F434   1.359       .  S
C432        F436   1.359       .  S
C439        C440   1.408       .  A
C439        C444   1.402       .  A
C439        F457   1.358       .  S
C440        C445   1.490       .  S
C440        C441   1.408       .  A
C441        C442   1.402       .  A
C441        F446   1.358       .  S
C442        C443   1.405       .  A
C442        F458   1.358       .  S
C443        C444   1.405       .  A
C444        F447   1.357       .  S
C445        C448   1.411       .  A
C445        C452   1.405       .  A
C448        C449   1.406       .  A
C448        F453   1.358       .  S
C449        C450   1.404       .  A
C449        F455   1.358       .  S
C450        C451   1.406       .  A
C451        C452   1.398       .  A
C451        F454   1.358       .  S
C452        F456   1.358       .  S
C459        C460   1.405       .  A
C459        C464   1.398       .  A
C459        F477   1.358       .  S
C460        C465   1.487       .  S
C460        C461   1.408       .  A
C461        C462   1.407       .  A
C461        F466   1.357       .  S
C462        C463   1.407       .  A
C462        F478   1.357       .  S
C463        C464   1.407       .  A
C464        F467   1.359       .  S
C465        C468   1.408       .  A
C465        C472   1.400       .  A
C468        C469   1.409       .  A
C468        F473   1.357       .  S
C469        C470   1.410       .  A
C469        F475   1.356       .  S
C470        C471   1.416       .  A
C471        C472   1.395       .  A
C471        F474   1.358       .  S
C472        F476   1.358       .  S
C479        C480   1.402       .  A
C479        C484   1.397       .  A
C479        F497   1.358       .  S
C480        C485   1.474       .  S
C480        C481   1.402       .  A
C481        C482   1.395       .  A
C481        F486   1.354       .  S
C482        C483   1.408       .  A
C482        F498   1.357       .  S
C483        C484   1.410       .  A
C484        F487   1.357       .  S
C485        C488   1.405       .  A
C485        C492   1.401       .  A
C488        C489   1.399       .  A
C488        F493   1.356       .  S
C489        C490   1.405       .  A
C489        F495   1.358       .  S
C490        C491   1.408       .  A
C491        C492   1.394       .  A
C491        F494   1.358       .  S
C492        F496   1.358       .  S
C499        C500   1.403       .  A
C499        C504   1.395       .  A
C499        F517   1.356       .  S
C500        C505   1.474       .  S
C500        C501   1.403       .  A
C501        C502   1.395       .  A
C501        F506   1.358       .  S
C502        C503   1.409       .  A
C502        F518   1.357       .  S
C503        C504   1.407       .  A
C504        F507   1.357       .  S
C505        C508   1.405       .  A
C505        C512   1.402       .  A
C508        C509   1.397       .  A
C508        F513   1.357       .  S
C509        C510   1.405       .  A
C509        F515   1.357       .  S
C510        C511   1.410       .  A
C511        C512   1.394       .  A
C511        F514   1.357       .  S
C512        F516   1.359       .  S
C519        C520   1.407       .  A
C519        C524   1.399       .  A
C519        F537   1.357       .  S
C520        C525   1.489       .  S
C520        C521   1.407       .  A
C521        C522   1.396       .  A
C521        F526   1.358       .  S
C522        C523   1.410       .  A
C522        F538   1.355       .  S
C523        C524   1.411       .  A
C524        F527   1.357       .  S
C525        C528   1.409       .  A
C525        C532   1.407       .  A
C528        C529   1.402       .  A
C528        F533   1.354       .  S
C529        C530   1.404       .  A
C529        F535   1.358       .  S
C530        C531   1.406       .  A
C531        C532   1.395       .  A
C531        F534   1.358       .  S
C532        F536   1.358       .  S
C539        C540   1.408       .  A
C539        C544   1.401       .  A
C539        F557   1.358       .  S
C540        C545   1.486       .  S
C540        C541   1.404       .  A
C541        C542   1.396       .  A
C541        F546   1.353       .  S
C542        C543   1.404       .  A
C542        F558   1.358       .  S
C543        C544   1.405       .  A
C544        F547   1.358       .  S
C545        C548   1.405       .  A
C545        C552   1.406       .  A
C548        C549   1.398       .  A
C548        F553   1.358       .  S
C549        C550   1.411       .  A
C549        F555   1.356       .  S
C550        C551   1.411       .  A
C551        C552   1.399       .  A
C551        F554   1.357       .  S
C552        F556   1.358       .  S
C559        C560   1.406       .  A
C559        C564   1.403       .  A
C559        F577   1.358       .  S
C560        C565   1.482       .  S
C560        C561   1.403       .  A
C561        C562   1.397       .  A
C561        F566   1.358       .  S
C562        C563   1.409       .  A
C562        F578   1.357       .  S
C563        C564   1.408       .  A
C564        F567   1.358       .  S
C565        C568   1.407       .  A
C565        C572   1.403       .  A
C568        C569   1.406       .  A
C568        F573   1.357       .  S
C569        C570   1.409       .  A
C569        F575   1.356       .  S
C570        C571   1.408       .  A
C571        C572   1.393       .  A
C571        F574   1.359       .  S
C572        F576   1.359       .  S
C579        C580   1.408       .  A
C579        C584   1.404       .  A
C579        F597   1.358       .  S
C580        C585   1.486       .  S
C580        C581   1.406       .  A
C581        C582   1.397       .  A
C581        F586   1.358       .  S
C582        C583   1.405       .  A
C582        F598   1.358       .  S
C583        C584   1.407       .  A
C584        F587   1.357       .  S
C585        C588   1.406       .  A
C585        C592   1.410       .  A
C588        C589   1.397       .  A
C588        F593   1.358       .  S
C589        C590   1.407       .  A
C589        F595   1.358       .  S
C590        C591   1.402       .  A
C591        C592   1.401       .  A
C591        F594   1.358       .  S
C592        F596   1.358       .  S
C599        C600   1.407       .  A
C599        C604   1.401       .  A
C599        F617   1.358       .  S
C600        C605   1.491       .  S
C600        C601   1.412       .  A
C601        C602   1.401       .  A
C601        F606   1.358       .  S
C602        C603   1.402       .  A
C602        F618   1.358       .  S
C603        C604   1.408       .  A
C604        F607   1.357       .  S
C605        C608   1.410       .  A
C605        C612   1.407       .  A
C608        C609   1.404       .  A
C608        F613   1.358       .  S
C609        C610   1.406       .  A
C609        F615   1.358       .  S
C610        C611   1.404       .  A
C611        C612   1.399       .  A
C611        F614   1.358       .  S
C612        F616   1.358       .  S
C619        C620   1.409       .  A
C619        C624   1.400       .  A
C619        F637   1.358       .  S
C620        C625   1.492       .  S
C620        C621   1.410       .  A
C621        C622   1.401       .  A
C621        F626   1.358       .  S
C622        C623   1.404       .  A
C622        F638   1.358       .  S
C623        C624   1.404       .  A
C624        F627   1.358       .  S
C625        C628   1.412       .  A
C625        C632   1.408       .  A
C628        C629   1.399       .  A
C628        F633   1.358       .  S
C629        C630   1.400       .  A
C629        F635   1.358       .  S
C630        C631   1.408       .  A
C631        C632   1.402       .  A
C631        F634   1.358       .  S
C632        F636   1.358       .  S
C639        C640   1.406       .  A
C639        C644   1.401       .  A
C639        F657   1.358       .  S
C640        C645   1.489       .  S
C640        C641   1.406       .  A
C641        C642   1.398       .  A
C641        F646   1.357       .  S
C642        C643   1.410       .  A
C642        F658   1.353       .  S
C643        C644   1.413       .  A
C644        F647   1.358       .  S
C645        C648   1.408       .  A
C645        C652   1.407       .  A
C648        C649   1.400       .  A
C648        F653   1.355       .  S
C649        C650   1.402       .  A
C649        F655   1.358       .  S
C650        C651   1.406       .  A
C651        C652   1.399       .  A
C651        F654   1.358       .  S
C652        F656   1.357       .  S
C659        C660   1.406       .  A
C659        C664   1.397       .  A
C659        F677   1.353       .  S
C660        C665   1.487       .  S
C660        C661   1.406       .  A
C661        C662   1.399       .  A
C661        F666   1.358       .  S
C662        C663   1.410       .  A
C662        F678   1.357       .  S
C663        C664   1.406       .  A
C664        F667   1.357       .  S
C665        C668   1.408       .  A
C665        C672   1.405       .  A
C668        C669   1.401       .  A
C668        F673   1.357       .  S
C669        C670   1.407       .  A
C669        F675   1.357       .  S
C670        C671   1.410       .  A
C671        C672   1.396       .  A
C671        F674   1.358       .  S
C672        F676   1.358       .  S
C679        C680   1.408       .  A
C679        C684   1.401       .  A
C679        F697   1.358       .  S
C680        C685   1.483       .  S
C680        C681   1.403       .  A
C681        C682   1.396       .  A
C681        F686   1.356       .  S
C682        C683   1.408       .  A
C682        F698   1.356       .  S
C683        C684   1.406       .  A
C684        F687   1.358       .  S
C685        C688   1.406       .  A
C685        C692   1.402       .  A
C688        C689   1.400       .  A
C688        F693   1.355       .  S
C689        C690   1.409       .  A
C689        F695   1.357       .  S
C690        C691   1.411       .  A
C691        C692   1.397       .  A
C691        F694   1.356       .  S
C692        F696   1.358       .  S
C699        C700   1.403       .  A
C699        C704   1.398       .  A
C699        F717   1.356       .  S
C700        C705   1.473       .  S
C700        C701   1.404       .  A
C701        C702   1.398       .  A
C701        F706   1.358       .  S
C702        C703   1.402       .  A
C702        F718   1.358       .  S
C703        C704   1.406       .  A
C704        F707   1.358       .  S
C705        C708   1.400       .  A
C705        C712   1.402       .  A
C708        C709   1.397       .  A
C708        F713   1.358       .  S
C709        C710   1.413       .  A
C709        F715   1.355       .  S
C710        C711   1.411       .  A
C711        C712   1.400       .  A
C711        F714   1.356       .  S
C712        F716   1.358       .  S
C719        C720   1.408       .  A
C719        C724   1.399       .  A
C719        F737   1.358       .  S
C720        C725   1.482       .  S
C720        C721   1.404       .  A
C721        C722   1.401       .  A
C721        F726   1.358       .  S
C722        C723   1.408       .  A
C722        F738   1.356       .  S
C723        C724   1.402       .  A
C724        F727   1.358       .  S
C725        C728   1.405       .  A
C725        C732   1.406       .  A
C728        C729   1.398       .  A
C728        F733   1.358       .  S
C729        C730   1.404       .  A
C729        F735   1.358       .  S
C730        C731   1.406       .  A
C731        C732   1.402       .  A
C731        F734   1.358       .  S
C732        F736   1.358       .  S
C739        C740   1.409       .  A
C739        C744   1.404       .  A
C739        F757   1.358       .  S
C740        C745   1.487       .  S
C740        C741   1.406       .  A
C741        C742   1.395       .  A
C741        F746   1.358       .  S
C742        C743   1.406       .  A
C742        F758   1.359       .  S
C743        C744   1.408       .  A
C744        F747   1.357       .  S
C745        C748   1.409       .  A
C745        C752   1.406       .  A
C748        C749   1.402       .  A
C748        F753   1.358       .  S
C749        C750   1.405       .  A
C749        F755   1.358       .  S
C750        C751   1.407       .  A
C751        C752   1.398       .  A
C751        F754   1.357       .  S
C752        F756   1.358       .  S
C759        C760   1.405       .  A
C759        C764   1.394       .  A
C759        F777   1.358       .  S
C760        C765   1.487       .  S
C760        C761   1.412       .  A
C761        C762   1.403       .  A
C761        F766   1.358       .  S
C762        C763   1.403       .  A
C762        F778   1.358       .  S
C763        C764   1.406       .  A
C764        F767   1.358       .  S
C765        C768   1.409       .  A
C765        C772   1.409       .  A
C768        C769   1.395       .  A
C768        F773   1.358       .  S
C769        C770   1.402       .  A
C769        F775   1.358       .  S
C770        C771   1.406       .  A
C771        C772   1.402       .  A
C771        F774   1.358       .  S
C772        F776   1.358       .  S
C779        C780   1.402       .  A
C779        C784   1.399       .  A
C779        F797   1.358       .  S
C780        C785   1.476       .  S
C780        C781   1.405       .  A
C781        C782   1.398       .  A
C781        F786   1.358       .  S
C782        C783   1.405       .  A
C782        F798   1.358       .  S
C783        C784   1.410       .  A
C784        F787   1.356       .  S
C785        C788   1.404       .  A
C785        C792   1.406       .  A
C788        C789   1.398       .  A
C788        F793   1.358       .  S
C789        C790   1.407       .  A
C789        F795   1.359       .  S
C790        C791   1.401       .  A
C791        C792   1.399       .  A
C791        F794   1.357       .  S
C792        F796   1.358       .  S
