geometry optimzed in LAMMPS
_audit_creation_date              2020-11-30 
_audit_creation_method            'lammps2cif' 
_symmetry_space_group_name_H-M    'P1' 
_symmetry_Int_Tables_number       1 
_symmetry_cell_setting            triclinic 
loop_ 
_symmetry_equiv_pos_as_xyz 
  x,y,z 
_cell_length_a                    43.67804316 
_cell_length_b                    43.87685658642073 
_cell_length_c                    26.531458950061072 
_cell_angle_alpha                 90.11633613272538 
_cell_angle_beta                  90.03848311400603 
_cell_angle_gamma                 119.73733912391354 
loop_ 
_atom_site_label 
_atom_site_type_symbol 
_atom_site_fract_x 
_atom_site_fract_y 
_atom_site_fract_z 
_atom_site_charge 
C1          C  0.21190666  0.10001281  0.41442456     0.03100
C2          C  0.19628960  0.12039498  0.42654681    -0.13100
C3          C  0.16346929  0.10516915  0.45054424     0.00600
C4          C  0.14662235  0.06946899  0.46328535    -0.11600
C5          C  0.16166655  0.04861902  0.45108290     0.03000
C6          C  0.19460277  0.06417701  0.42712542    -0.11000
H7          H  0.20863310  0.14754283  0.41452741     0.08600
H8          H  0.12129806  0.05770495  0.48214142     0.06200
H9          H  0.20599604  0.04813354  0.41617366     0.06000
C10         C  0.14270256  0.17511153  0.49556362     0.03100
C11         C  0.16170713  0.15793394  0.48370707    -0.13100
C12         C  0.14508532  0.12542006  0.45870332     0.00600
C13         C  0.10961256  0.11066188  0.44444649    -0.11600
C14         C  0.09036488  0.12759021  0.45534539     0.03000
C15         C  0.10736472  0.16041819  0.47947624    -0.11000
H16         H  0.18863506  0.16866912  0.49684753     0.08600
H17         H  0.09658531  0.08533139  0.42570719     0.06200
H18         H  0.09241660  0.17325660  0.48911217     0.06000
C19         C  0.49807190  0.10461950  0.41211156     0.03100
C20         C  0.03479244  0.12366517  0.42051650    -0.13100
C21         C  0.05164458  0.10854372  0.44719639     0.00600
C22         C  0.03158052  0.07402152  0.46487296    -0.11600
C23         C  0.49515192  0.05438771  0.45599271     0.03000
C24         C  0.47844495  0.07005902  0.43045289    -0.11000
H25         H  0.05046164  0.14964727  0.40464307     0.08600
H26         H  0.04451969  0.06214638  0.48523808     0.06200
H27         H  0.45039254  0.05484388  0.42293706     0.06000
C28         C  0.49196901  0.38891882  0.42100527     0.03100
C29         C  0.47361153  0.40640445  0.43528543    -0.13100
C30         C  0.49146103  0.43942479  0.45881979     0.00600
C31         C  0.02760586  0.45445201  0.46881156    -0.11600
C32         C  0.04631562  0.43760969  0.45428536     0.03000
C33         C  0.02830140  0.40461433  0.43091993    -0.11000
H34         H  0.44590300  0.39504566  0.42601310     0.08600
H35         H  0.04143661  0.47977307  0.48748072     0.06200
H36         H  0.04288010  0.39203656  0.41798229     0.06000
C37         C  0.42697415  0.46617698  0.51043711     0.03100
C38         C  0.44166295  0.44525655  0.49608581    -0.13100
C39         C  0.47365901  0.45996971  0.46982202     0.00600
C40         C  0.49019591  0.49547798  0.45630639    -0.11600
C41         C  0.47566311  0.01660789  0.46934854     0.03000
C42         C  0.44366822  0.50169345  0.49599674    -0.11000
H43         H  0.42899980  0.41797845  0.50739607     0.08600
H44         H  0.01467835  0.00680656  0.43530300     0.06200
H45         H  0.43265941  0.01798360  0.50743877     0.06000
C46         C  0.13703848  0.45721389  0.49711557     0.03100
C47         C  0.15729734  0.49293051  0.48423476    -0.13100
C48         C  0.14153777  0.01026777  0.46055634     0.00600
C49         C  0.10548472  0.49129736  0.44879789    -0.11600
C50         C  0.08496277  0.45573205  0.46160491     0.03000
C51         C  0.10097704  0.43869843  0.48522439    -0.11000
H52         H  0.18482640  0.00759344  0.49511868     0.08600
H53         H  0.09312363  0.50445187  0.43029234     0.06200
H54         H  0.08492354  0.41173624  0.49746965     0.06000
Fe55       Fe  0.18008123  0.33583880  0.70500161     1.65800
Fe56       Fe  0.25536556  0.41452884  0.70995986     1.73200
Fe57       Fe  0.25986841  0.33954347  0.70779315     1.54400
O58         O  0.22499269  0.29934101  0.75379177    -0.81700
O59         O  0.28658703  0.41972862  0.64825848    -0.80100
O60         O  0.17812404  0.30599177  0.76610487    -0.84300
O61         O  0.17955082  0.29886585  0.65608778    -0.79100
O62         O  0.28814040  0.36646783  0.77141804    -0.80900
O63         O  0.21969261  0.41735157  0.66198618    -0.83600
C64         C  0.20198194  0.29314713  0.63387591     0.97100
C65         C  0.19607591  0.29114715  0.77565332     1.04600
O66         O  0.23176902  0.36325207  0.70748095    -1.12600
O67         O  0.22632328  0.41378325  0.77187369    -0.75000
O68         O  0.17314217  0.36882320  0.75391836    -0.78500
O69         O  0.23467906  0.31015212  0.64424799    -0.79200
C70         C  0.19328753  0.39614398  0.77930072     0.96000
O71         O  0.17711131  0.36321570  0.64360009    -0.77200
O72         O  0.29461661  0.41940041  0.75833752    -0.82400
C73         C  0.30446480  0.40461829  0.63968554     0.98700
C74         C  0.30326399  0.39920278  0.78053535     1.04600
O75         O  0.29859853  0.37660548  0.66188313    -0.78000
C76         C  0.19232338  0.39621655  0.63748890     1.02900
C77         C  0.49728864  0.10776348  0.99811878     0.03100
C78         C  0.47613247  0.07149797  0.98828567    -0.13100
C79         C  0.49052978  0.05296427  0.96400030     0.00600
C80         C  0.02601348  0.07109522  0.94911073    -0.11600
C81         C  0.04740838  0.10695758  0.95912064     0.03000
C82         C  0.03277238  0.12527557  0.98288475    -0.11000
H83         H  0.44923026  0.05743394  0.00189356     0.08600
H84         H  0.03728530  0.05700156  0.93025081     0.06200
H85         H  0.04941785  0.15289519  0.99161196     0.06000
C86         C  0.42119544  0.46145489  0.92019392     0.03100
C87         C  0.43804977  0.44235425  0.93357375    -0.13100
C88         C  0.47056649  0.45880197  0.95885778     0.00600
C89         C  0.48609352  0.49445671  0.97111808    -0.11600
C90         C  0.47026841  0.01426382  0.95726957     0.03000
C91         C  0.43745369  0.49750646  0.93259153    -0.11000
H92         H  0.42694208  0.41523924  0.92173789     0.08600
H93         H  0.01133482  0.00718654  0.99042138     0.06200
H94         H  0.42550327  0.01284069  0.92068905     0.06000
C95         C  0.49407813  0.39195187  0.00857768     0.03100
C96         C  0.47436080  0.40820264  0.99577990    -0.13100
C97         C  0.49011522  0.43992805  0.96913833     0.00600
C98         C  0.02566294  0.45505890  0.95493855    -0.11600
C99         C  0.04538958  0.43866458  0.96652220     0.03000
C100        C  0.02909808  0.40653982  0.99196401    -0.11000
H101        H  0.44739536  0.39716021  0.00876927     0.08600
H102        H  0.03805956  0.47977895  0.93479977     0.06200
H103        H  0.04421312  0.39384849  0.00131373     0.06000
C104        C  0.13365762  0.45685727  0.91366929     0.03100
C105        C  0.15490343  0.49267381  0.92609774    -0.13100
C106        C  0.14045202  0.01047504  0.95219055     0.00600
C107        C  0.10485608  0.49200708  0.96647991    -0.11600
C108        C  0.08352251  0.45641663  0.95473333     0.03000
C109        C  0.09835702  0.43866592  0.92980985    -0.11000
H110        H  0.18195470  0.00704979  0.91308838     0.08600
H111        H  0.09350241  0.00562133  0.98642505     0.06200
H112        H  0.08198318  0.41110008  0.92070749     0.06000
C113        C  0.20915788  0.10122681  0.99903596     0.03100
C114        C  0.19324495  0.06542001  0.98589324    -0.13100
C115        C  0.16058995  0.04897858  0.96063061     0.00600
C116        C  0.14475415  0.06890380  0.94736191    -0.11600
C117        C  0.16032791  0.10449569  0.95995024     0.03000
C118        C  0.19292377  0.12075860  0.98493538    -0.11000
H119        H  0.20506699  0.05001298  0.99805288     0.08600
H120        H  0.11963180  0.05636366  0.92776625     0.06200
H121        H  0.20473798  0.14808196  0.99589420     0.06000
C122        C  0.13793945  0.17164789  0.90838477     0.03100
C123        C  0.15755084  0.15581016  0.92383705    -0.13100
C124        C  0.14108512  0.12363652  0.94922755     0.00600
C125        C  0.10517683  0.10828571  0.96135836    -0.11600
C126        C  0.08556504  0.12444198  0.94770658     0.03000
C127        C  0.10219251  0.15632350  0.92151483    -0.11000
H128        H  0.18513852  0.16760395  0.91373696     0.08600
H129        H  0.09241651  0.08358031  0.98150835     0.06200
H130        H  0.08693909  0.16831279  0.90920845     0.06000
Fe131      Fe  0.37640523  0.14878044  0.20088483     1.65800
Fe132      Fe  0.37298799  0.22427638  0.20964667     1.73200
Fe133      Fe  0.45253271  0.22744606  0.21333401     1.54400
O134        O  0.45571446  0.19235593  0.26182017    -0.81700
O135        O  0.40098607  0.25612985  0.15030769    -0.80100
O136        O  0.40353693  0.14308666  0.26071476    -0.84300
O137        O  0.41241168  0.14914598  0.15065084    -0.79100
O138        O  0.45202724  0.25567678  0.27572633    -0.80900
O139        O  0.33488229  0.19039285  0.15925744    -0.83600
C140        C  0.44274915  0.17141057  0.13487385     0.97100
C141        C  0.43496739  0.16132622  0.27679798     1.04600
O142        O  0.40077469  0.20013092  0.20803059    -1.12600
O143        O  0.34321161  0.19419968  0.26924849    -0.75000
O144        O  0.33662094  0.14165726  0.25016795    -0.78500
O145        O  0.45988983  0.20257534  0.15183395    -0.79200
C146        C  0.32819641  0.16116108  0.27513770     0.96000
O147        O  0.34708645  0.14837837  0.13954476    -0.77200
O148        O  0.40587319  0.26254113  0.26011411    -0.82400
C149        C  0.43399339  0.27262417  0.14217289     0.98700
C150        C  0.43417977  0.27082177  0.28370119     1.04600
O151        O  0.45551984  0.26597094  0.16537193    -0.78000
C152        C  0.32954461  0.16395171  0.13314849     1.02900
C153        C  0.27322331  0.12316928  0.01583249    -0.09200
C154        C  0.24031446  0.11741741  0.03280263     0.07000
C155        C  0.23744266  0.12774437  0.08210069    -0.03000
C156        C  0.26713712  0.14388923  0.11321709    -0.07400
C157        C  0.29998597  0.14936950  0.09670752     0.06100
C158        C  0.30300402  0.13904540  0.04739776    -0.02500
Br159      Br  0.34746968  0.14793076  0.02064216    -0.02200
H160        H  0.27580945  0.11565664  0.97786025     0.10000
H161        H  0.26427458  0.15116590  0.15123887     0.08000
Br162      Br  0.19304730  0.11838382  0.10997604    -0.02600
C163        C  0.48098006  0.33193002  0.11874407    -0.09200
C164        C  0.44873972  0.30217338  0.10635705     0.07000
C165        C  0.43139577  0.30207597  0.06141822    -0.03000
C166        C  0.44659823  0.33147406  0.02984685    -0.07400
C167        C  0.47892297  0.36115307  0.04233726     0.06100
C168        C  0.49594197  0.36133710  0.08764221    -0.02500
Br169      Br  0.03826129  0.40175568  0.11132822    -0.02200
H170        H  0.49420041  0.33275007  0.15370448     0.10000
H171        H  0.43331176  0.33106697  0.99517198     0.08000
Br172      Br  0.38803846  0.26212163  0.03986324    -0.02600
C173        C  0.50309538  0.14359897  0.07393994    -0.09200
C174        C  0.48413074  0.12659747  0.03011527     0.07000
C175        C  0.45294849  0.12732436  0.01881457    -0.03000
C176        C  0.44039964  0.14324140  0.05248887    -0.07400
C177        C  0.45900193  0.15942869  0.09683559     0.06100
C178        C  0.49089093  0.15998714  0.10707628    -0.02500
Br179      Br  0.01697415  0.17973560  0.16817237    -0.02200
H180        H  0.02701543  0.14313749  0.08334248     0.10000
H181        H  0.41586711  0.14274950  0.04425733     0.08000
Br182      Br  0.42736427  0.10824221  0.95725123    -0.02600
C183        C  0.18315793  0.23138546  0.79748938    -0.09200
C184        C  0.18212040  0.26170908  0.81143677     0.07000
C185        C  0.16685589  0.26251056  0.85783829    -0.03000
C186        C  0.15304192  0.23313292  0.88941934    -0.07400
C187        C  0.15395655  0.20272771  0.87523553     0.06100
C188        C  0.16881114  0.20187765  0.82844166    -0.03900
Br189      Br  0.16745683  0.16026998  0.80256477    -0.02200
H190        H  0.19407621  0.23017984  0.76135617     0.10000
H191        H  0.14155230  0.23399483  0.92519287     0.08000
Br192      Br  0.16554344  0.30339043  0.88069651    -0.02600
C193        C  0.33144853  0.39780602  0.86217308    -0.09200
C194        C  0.33293198  0.41509994  0.81695829     0.07000
C195        C  0.36333579  0.44763536  0.80664012    -0.03000
C196        C  0.39107208  0.46231776  0.84129235    -0.07400
C197        C  0.38968954  0.44528340  0.88661967     0.06100
C198        C  0.35938334  0.41264672  0.89701761    -0.02500
Br199      Br  0.35399100  0.38798802  0.95899193    -0.02200
H200        H  0.30828662  0.37290330  0.87075222     0.10000
H201        H  0.41446135  0.48685968  0.83197824     0.08000
Br202      Br  0.37015837  0.47218887  0.74402927    -0.02600
C203        C  0.14547284  0.40800815  0.80362415    -0.09200
C204        C  0.17707983  0.40894011  0.81658219     0.07000
C205        C  0.19318086  0.42379527  0.86316306    -0.03000
C206        C  0.17857378  0.43901717  0.89453960    -0.07400
C207        C  0.14755737  0.43912024  0.88073105     0.06100
C208        C  0.13072118  0.42294015  0.83494245    -0.02500
Br209      Br  0.08908237  0.42267909  0.81077190    -0.02200
H210        H  0.13284077  0.39679918  0.76787229     0.10000
H211        H  0.19134839  0.45063953  0.93002002     0.08000
Br212      Br  0.23379296  0.42204749  0.88694785    -0.02600
C213        C  0.16450060  0.39495284  0.55460863    -0.09200
C214        C  0.17764480  0.41122882  0.60147876     0.07000
C215        C  0.17686954  0.44222302  0.61342057    -0.03000
C216        C  0.16449898  0.45701958  0.57814507    -0.07400
C217        C  0.15190516  0.44120118  0.53108294     0.06100
C218        C  0.15156302  0.40964929  0.51946281    -0.02500
Br219      Br  0.13484048  0.38640257  0.45576668    -0.02200
H220        H  0.16475072  0.37105949  0.54504096     0.10000
H221        H  0.16366113  0.48055882  0.58816762     0.08000
Br222      Br  0.18934977  0.46410715  0.67877882    -0.02600
C223        C  0.36430161  0.44988364  0.52740164    -0.09200
C224        C  0.39566197  0.45137767  0.54371953     0.07000
C225        C  0.39665324  0.43813973  0.59168108    -0.03000
C226        C  0.36652211  0.42296340  0.62167823    -0.07400
C227        C  0.33504235  0.42102567  0.60539704     0.06100
C228        C  0.33400936  0.43474242  0.55781384    -0.02500
Br229      Br  0.29141744  0.43107984  0.53131444    -0.02200
H230        H  0.36318425  0.45981767  0.49052419     0.10000
H231        H  0.36787915  0.41308033  0.65852398     0.08000
Br232      Br  0.43888041  0.44155969  0.61945642    -0.02600
C233        C  0.46056518  0.29754385  0.36732026    -0.09200
C234        C  0.44730074  0.30021085  0.32024939     0.07000
C235        C  0.44755485  0.33166522  0.30796335    -0.03000
C236        C  0.46105773  0.35958097  0.34215093    -0.07400
C237        C  0.47465362  0.35713012  0.38884670     0.06100
C238        C  0.47388907  0.32559326  0.40174917    -0.02500
Br239      Br  0.48939801  0.31926278  0.46658780    -0.02200
H240        H  0.46026826  0.27349884  0.37749867     0.10000
H241        H  0.46209852  0.38390326  0.33143574     0.08000
Br242      Br  0.43281519  0.33952535  0.24333795    -0.02600
C243        C  0.46957218  0.16607441  0.35390514    -0.09200
C244        C  0.44870371  0.14568453  0.31338685     0.07000
C245        C  0.44353038  0.11156804  0.30646289    -0.03000
C246        C  0.45946979  0.09872375  0.33935466    -0.07400
C247        C  0.48060412  0.11914981  0.37972584     0.06100
C248        C  0.48511051  0.15299781  0.38731444    -0.02500
Br249      Br  0.51056038  0.18184087  0.44392164    -0.02200
H250        H  0.47362696  0.19226947  0.35978711     0.10000
H251        H  0.45608823  0.07288146  0.33246679     0.08000
Br252      Br  0.41759767  0.08238368  0.25031866    -0.02600
C253        C  0.15620242  0.23368229  0.60834604    -0.09200
C254        C  0.18831854  0.26385564  0.59703287     0.07000
C255        C  0.20609395  0.26447051  0.55226133    -0.03000
C256        C  0.19080580  0.23560861  0.51911504    -0.07400
C257        C  0.15823848  0.20573690  0.53030490     0.06100
C258        C  0.14154352  0.20466881  0.57624525    -0.02500
Br259      Br  0.10043006  0.16315594  0.59982982    -0.02200
H260        H  0.14284121  0.23215777  0.64344787     0.10000
H261        H  0.20431954  0.23649556  0.48446248     0.08000
Br262      Br  0.25042436  0.30421065  0.53373299    -0.02600
C263        C  0.30243019  0.16020992  0.35903394    -0.09200
C264        C  0.29916012  0.14450257  0.31170906     0.07000
C265        C  0.26754265  0.11363515  0.29934594    -0.03000
C266        C  0.24012846  0.09896771  0.33426183    -0.07400
C267        C  0.24321238  0.11476511  0.38139162     0.06100
C268        C  0.27478447  0.14559281  0.39387053    -0.02500
Br269      Br  0.28173881  0.16824718  0.45815463    -0.02200
H270        H  0.32659406  0.18391480  0.36894758     0.10000
H271        H  0.21562884  0.07582035  0.32373458     0.08000
Br272      Br  0.25867367  0.09226291  0.23370608    -0.02600
C273        C  0.21190667  0.60001282  0.41442457     0.03100
C274        C  0.19628962  0.62039501  0.42654679    -0.13100
C275        C  0.16346931  0.60516918  0.45054423     0.00600
C276        C  0.14662234  0.56946901  0.46328538    -0.11600
C277        C  0.16166654  0.54861903  0.45108287     0.03000
C278        C  0.19460275  0.56417703  0.42712545    -0.11000
H279        H  0.20863312  0.64754284  0.41452736     0.08600
H280        H  0.12129813  0.55770503  0.48214144     0.06200
H281        H  0.20599606  0.54813350  0.41617365     0.06000
C282        C  0.14270257  0.67511148  0.49556373     0.03100
C283        C  0.16170716  0.65793392  0.48370714    -0.13100
C284        C  0.14508533  0.62542005  0.45870331     0.00600
C285        C  0.10961258  0.61066191  0.44444650    -0.11600
C286        C  0.09036488  0.62759020  0.45534538     0.03000
C287        C  0.10736474  0.66041817  0.47947631    -0.11000
H288        H  0.18863506  0.66866908  0.49684749     0.08600
H289        H  0.09658529  0.58533131  0.42570711     0.06200
H290        H  0.09241665  0.67325660  0.48911221     0.06000
C291        C  0.49807191  0.60461950  0.41211158     0.03100
C292        C  0.03479245  0.62366514  0.42051651    -0.13100
C293        C  0.05164459  0.60854369  0.44719639     0.00600
C294        C  0.03158052  0.57402148  0.46487296    -0.11600
C295        C  0.49515192  0.55438765  0.45599269     0.03000
C296        C  0.47844495  0.57005898  0.43045286    -0.11000
H297        H  0.05046166  0.64964726  0.40464307     0.08600
H298        H  0.04451970  0.56214631  0.48523810     0.06200
H299        H  0.45039255  0.55484385  0.42293703     0.06000
C300        C  0.49196902  0.88891890  0.42100526     0.03100
C301        C  0.47361160  0.90640459  0.43528541    -0.13100
C302        C  0.49146112  0.93942493  0.45881976     0.00600
C303        C  0.02760591  0.95445209  0.46881152    -0.11600
C304        C  0.04631564  0.93760975  0.45428534     0.03000
C305        C  0.02830141  0.90461436  0.43091995    -0.11000
H306        H  0.44590303  0.89504581  0.42601316     0.08600
H307        H  0.04143672  0.97977320  0.48748065     0.06200
H308        H  0.04288011  0.89203657  0.41798239     0.06000
C309        C  0.42697420  0.96617705  0.51043717     0.03100
C310        C  0.44166302  0.94525665  0.49608581    -0.13100
C311        C  0.47365909  0.95996984  0.46982205     0.00600
C312        C  0.49019596  0.99547809  0.45630643    -0.11600
C313        C  0.47566310  0.51660782  0.46934853     0.03000
C314        C  0.44366823  0.00169351  0.49599677    -0.11000
H315        H  0.42899986  0.91797851  0.50739602     0.08600
H316        H  0.01467829  0.50680645  0.43530296     0.06200
H317        H  0.43265941  0.51798356  0.50743876     0.06000
C318        C  0.13703843  0.95721390  0.49711567     0.03100
C319        C  0.15729729  0.99293050  0.48423491    -0.13100
C320        C  0.14153775  0.51026776  0.46055630     0.00600
C321        C  0.10548474  0.99129740  0.44879785    -0.11600
C322        C  0.08496278  0.95573209  0.46160490     0.03000
C323        C  0.10097697  0.93869844  0.48522447    -0.11000
H324        H  0.18482642  0.50759345  0.49511844     0.08600
H325        H  0.09312375  0.00445191  0.43029227     0.06200
H326        H  0.08492348  0.91173633  0.49746969     0.06000
Fe327      Fe  0.18008124  0.83583879  0.70500160     1.65800
Fe328      Fe  0.25536556  0.91452885  0.70995994     1.73200
Fe329      Fe  0.25986842  0.83954346  0.70779316     1.54400
O330        O  0.22499264  0.79934098  0.75379172    -0.81700
O331        O  0.28658702  0.91972861  0.64825854    -0.80100
O332        O  0.17812405  0.80599180  0.76610492    -0.84300
O333        O  0.17955082  0.79886581  0.65608781    -0.79100
O334        O  0.28814040  0.86646783  0.77141805    -0.80900
O335        O  0.21969264  0.91735159  0.66198626    -0.83600
C336        C  0.20198195  0.79314709  0.63387593     0.97100
C337        C  0.19607588  0.79114714  0.77565331     1.04600
O338        O  0.23176903  0.86325206  0.70748099    -1.12600
O339        O  0.22632323  0.91378323  0.77187373    -0.75000
O340        O  0.17314213  0.86882315  0.75391839    -0.78500
O341        O  0.23467907  0.81015209  0.64424799    -0.79200
C342        C  0.19328747  0.89614392  0.77930076     0.96000
O343        O  0.17711136  0.86321574  0.64360007    -0.77200
O344        O  0.29461664  0.91940042  0.75833761    -0.82400
C345        C  0.30446479  0.90461827  0.63968558     0.98700
C346        C  0.30326402  0.89920279  0.78053538     1.04600
O347        O  0.29859857  0.87660549  0.66188321    -0.78000
C348        C  0.19232343  0.89621661  0.63748893     1.02900
C349        C  0.49728862  0.60776345  0.99811883     0.03100
C350        C  0.47613246  0.57149795  0.98828570    -0.13100
C351        C  0.49052974  0.55296425  0.96400029     0.00600
C352        C  0.02601344  0.57109520  0.94911072    -0.11600
C353        C  0.04740834  0.60695754  0.95912052     0.03000
C354        C  0.03277237  0.62527554  0.98288473    -0.11000
H355        H  0.44923023  0.55743392  0.00189362     0.08600
H356        H  0.03728531  0.55700149  0.93025072     0.06200
H357        H  0.04941781  0.65289514  0.99161196     0.06000
C358        C  0.42119545  0.96145494  0.92019402     0.03100
C359        C  0.43804978  0.94235429  0.93357383    -0.13100
C360        C  0.47056649  0.95880200  0.95885789     0.00600
C361        C  0.48609354  0.99445673  0.97111811    -0.11600
C362        C  0.47026837  0.51426379  0.95726956     0.03000
C363        C  0.43745374  0.99750650  0.93259156    -0.11000
H364        H  0.42694211  0.91523930  0.92173796     0.08600
H365        H  0.01133476  0.50718649  0.99042143     0.06200
H366        H  0.42550322  0.51284063  0.92068905     0.06000
C367        C  0.49407819  0.89195196  0.00857778     0.03100
C368        C  0.47436085  0.90820269  0.99577997    -0.13100
C369        C  0.49011525  0.93992810  0.96913835     0.00600
C370        C  0.02566288  0.95505891  0.95493850    -0.11600
C371        C  0.04538953  0.93866461  0.96652215     0.03000
C372        C  0.02909808  0.90653988  0.99196407    -0.11000
H373        H  0.44739546  0.89716030  0.00876935     0.08600
H374        H  0.03805949  0.97977896  0.93479969     0.06200
H375        H  0.04421309  0.89384860  0.00131377     0.06000
C376        C  0.13365761  0.95685728  0.91366926     0.03100
C377        C  0.15490338  0.99267382  0.92609770    -0.13100
C378        C  0.14045205  0.51047504  0.95219060     0.00600
C379        C  0.10485605  0.99200707  0.96647993    -0.11600
C380        C  0.08352249  0.95641662  0.95473331     0.03000
C381        C  0.09835702  0.93866594  0.92980986    -0.11000
H382        H  0.18195467  0.50704973  0.91308844     0.08600
H383        H  0.09350242  0.50562136  0.98642507     0.06200
H384        H  0.08198313  0.91110000  0.92070750     0.06000
C385        C  0.20915789  0.60122688  0.99903596     0.03100
C386        C  0.19324500  0.56542007  0.98589324    -0.13100
C387        C  0.16058999  0.54897859  0.96063062     0.00600
C388        C  0.14475415  0.56890376  0.94736191    -0.11600
C389        C  0.16032787  0.60449566  0.95995022     0.03000
C390        C  0.19292372  0.62075862  0.98493539    -0.11000
H391        H  0.20506709  0.55001311  0.99805285     0.08600
H392        H  0.11963181  0.55636358  0.92776625     0.06200
H393        H  0.20473789  0.64808196  0.99589419     0.06000
C394        C  0.13793943  0.67164786  0.90838474     0.03100
C395        C  0.15755082  0.65581013  0.92383701    -0.13100
C396        C  0.14108507  0.62363645  0.94922745     0.00600
C397        C  0.10517676  0.60828562  0.96135813    -0.11600
C398        C  0.08556499  0.62444191  0.94770639     0.03000
C399        C  0.10219247  0.65632349  0.92151474    -0.11000
H400        H  0.18513850  0.66760392  0.91373696     0.08600
H401        H  0.09241644  0.58358019  0.98150811     0.06200
H402        H  0.08693914  0.66831279  0.90920846     0.06000
Fe403      Fe  0.37640520  0.64878042  0.20088483     1.65800
Fe404      Fe  0.37298800  0.72427644  0.20964670     1.73200
Fe405      Fe  0.45253265  0.72744606  0.21333400     1.54400
O406        O  0.45571443  0.69235598  0.26182016    -0.81700
O407        O  0.40098611  0.75612994  0.15030771    -0.80100
O408        O  0.40353695  0.64308666  0.26071475    -0.84300
O409        O  0.41241166  0.64914596  0.15065087    -0.79100
O410        O  0.45202722  0.75567676  0.27572634    -0.80900
O411        O  0.33488234  0.69039291  0.15925745    -0.83600
C412        C  0.44274912  0.67141056  0.13487386     0.97100
C413        C  0.43496742  0.66132626  0.27679797     1.04600
O414        O  0.40077463  0.70013092  0.20803058    -1.12600
O415        O  0.34321163  0.69419975  0.26924859    -0.75000
O416        O  0.33662091  0.64165731  0.25016791    -0.78500
O417        O  0.45988979  0.70257534  0.15183396    -0.79200
C418        C  0.32819641  0.66116112  0.27513773     0.96000
O419        O  0.34708644  0.64837837  0.13954476    -0.77200
O420        O  0.40587323  0.76254118  0.26011411    -0.82400
C421        C  0.43399342  0.77262422  0.14217287     0.98700
C422        C  0.43417979  0.77082178  0.28370120     1.04600
O423        O  0.45551986  0.76597098  0.16537195    -0.78000
C424        C  0.32954466  0.66395177  0.13314846     1.02900
C425        C  0.27322331  0.62316927  0.01583252    -0.09200
C426        C  0.24031449  0.61741750  0.03280262     0.07000
C427        C  0.23744272  0.62774445  0.08210071    -0.03000
C428        C  0.26713720  0.64388935  0.11321705    -0.07400
C429        C  0.29998604  0.64936961  0.09670747     0.06100
C430        C  0.30300404  0.63904539  0.04739776    -0.02500
Br431      Br  0.34746967  0.64793069  0.02064216    -0.02200
H432        H  0.27580942  0.61565655  0.97786031     0.10000
H433        H  0.26427469  0.65116606  0.15123887     0.08000
Br434      Br  0.19304741  0.61838401  0.10997605    -0.02600
C435        C  0.48098010  0.83193001  0.11874402    -0.09200
C436        C  0.44873977  0.80217339  0.10635697     0.07000
C437        C  0.43139581  0.80207600  0.06141817    -0.03000
C438        C  0.44659824  0.83147413  0.02984687    -0.07400
C439        C  0.47892301  0.86115313  0.04233731     0.06100
C440        C  0.49594201  0.86133709  0.08764221    -0.02500
Br441      Br  0.03826130  0.90175563  0.11132824    -0.02200
H442        H  0.49420042  0.83275003  0.15370444     0.10000
H443        H  0.43331178  0.83106711  0.99517210     0.08000
Br444      Br  0.38803848  0.76212160  0.03986323    -0.02600
C445        C  0.50309531  0.64359890  0.07394002    -0.09200
C446        C  0.48413073  0.62659743  0.03011533     0.07000
C447        C  0.45294847  0.62732430  0.01881460    -0.03000
C448        C  0.44039961  0.64324135  0.05248888    -0.07400
C449        C  0.45900190  0.65942865  0.09683560     0.06100
C450        C  0.49089086  0.65998703  0.10707637    -0.02500
Br451      Br  0.01697414  0.67973554  0.16817234    -0.02200
H452        H  0.02701540  0.64313741  0.08334248     0.10000
H453        H  0.41586708  0.64274945  0.04425730     0.08000
Br454      Br  0.42736427  0.60824214  0.95725124    -0.02600
C455        C  0.18315790  0.73138542  0.79748939    -0.09200
C456        C  0.18212038  0.76170906  0.81143675     0.07000
C457        C  0.16685592  0.76251055  0.85783832    -0.03000
C458        C  0.15304191  0.73313290  0.88941933    -0.07400
C459        C  0.15395649  0.70272767  0.87523548     0.06100
C460        C  0.16881110  0.70187761  0.82844164    -0.03900
Br461      Br  0.16745682  0.66026992  0.80256478    -0.02200
H462        H  0.19407618  0.73017977  0.76135612     0.10000
H463        H  0.14155231  0.73399484  0.92519285     0.08000
Br464      Br  0.16554344  0.80339040  0.88069653    -0.02600
C465        C  0.33144856  0.89780601  0.86217310    -0.09200
C466        C  0.33293201  0.91509992  0.81695832     0.07000
C467        C  0.36333577  0.94763537  0.80664020    -0.03000
C468        C  0.39107208  0.96231785  0.84129247    -0.07400
C469        C  0.38968950  0.94528345  0.88661981     0.06100
C470        C  0.35938335  0.91264675  0.89701767    -0.02500
Br471      Br  0.35399108  0.88798816  0.95899199    -0.02200
H472        H  0.30828662  0.87290326  0.87075224     0.10000
H473        H  0.41446125  0.98685963  0.83197841     0.08000
Br474      Br  0.37015820  0.97218884  0.74402931    -0.02600
C475        C  0.14547285  0.90800820  0.80362410    -0.09200
C476        C  0.17707979  0.90894007  0.81658224     0.07000
C477        C  0.19318085  0.92379528  0.86316307    -0.03000
C478        C  0.17857382  0.93901726  0.89453954    -0.07400
C479        C  0.14755735  0.93912025  0.88073104     0.06100
C480        C  0.13072113  0.92294014  0.83494246    -0.02500
Br481      Br  0.08908222  0.92267902  0.81077194    -0.02200
H482        H  0.13284086  0.89679932  0.76787226     0.10000
H483        H  0.19134852  0.95063975  0.93001987     0.08000
Br484      Br  0.23379307  0.92204768  0.88694784    -0.02600
C485        C  0.16450064  0.89495292  0.55460866    -0.09200
C486        C  0.17764487  0.91122891  0.60147878     0.07000
C487        C  0.17686966  0.94222315  0.61342054    -0.03000
C488        C  0.16449906  0.95701967  0.57814504    -0.07400
C489        C  0.15190514  0.94120120  0.53108298     0.06100
C490        C  0.15156306  0.90964934  0.51946281    -0.02500
Br491      Br  0.13484048  0.88640253  0.45576671    -0.02200
H492        H  0.16475071  0.87105949  0.54504103     0.10000
H493        H  0.16366123  0.98055894  0.58816757     0.08000
Br494      Br  0.18934989  0.96410733  0.67877880    -0.02600
C495        C  0.36430161  0.94988359  0.52740166    -0.09200
C496        C  0.39566200  0.95137773  0.54371960     0.07000
C497        C  0.39665327  0.93813982  0.59168119    -0.03000
C498        C  0.36652210  0.92296339  0.62167825    -0.07400
C499        C  0.33504233  0.92102563  0.60539705     0.06100
C500        C  0.33400935  0.93474236  0.55781383    -0.02500
Br501      Br  0.29141742  0.93107977  0.53131443    -0.02200
H502        H  0.36318422  0.95981758  0.49052413     0.10000
H503        H  0.36787909  0.91308023  0.65852399     0.08000
Br504      Br  0.43888039  0.94155964  0.61945643    -0.02600
C505        C  0.46056522  0.79754390  0.36732025    -0.09200
C506        C  0.44730077  0.80021086  0.32024939     0.07000
C507        C  0.44755486  0.83166523  0.30796335    -0.03000
C508        C  0.46105768  0.85958096  0.34215096    -0.07400
C509        C  0.47465357  0.85713013  0.38884676     0.06100
C510        C  0.47388908  0.82559328  0.40174919    -0.02500
Br511      Br  0.48939801  0.81926274  0.46658779    -0.02200
H512        H  0.46026833  0.77349882  0.37749870     0.10000
H513        H  0.46209850  0.88390325  0.33143571     0.08000
Br514      Br  0.43281530  0.83952550  0.24333796    -0.02600
C515        C  0.46957228  0.66607452  0.35390510    -0.09200
C516        C  0.44870380  0.64568464  0.31338682     0.07000
C517        C  0.44353046  0.61156812  0.30646288    -0.03000
C518        C  0.45946985  0.59872388  0.33935469    -0.07400
C519        C  0.48060417  0.61914988  0.37972586     0.06100
C520        C  0.48511062  0.65299795  0.38731443    -0.02500
Br521      Br  0.51056050  0.68184105  0.44392161    -0.02200
H522        H  0.47362709  0.69226968  0.35978709     0.10000
H523        H  0.45608824  0.57288145  0.33246683     0.08000
Br524      Br  0.41759769  0.58238366  0.25031870    -0.02600
C525        C  0.15620242  0.73368227  0.60834606    -0.09200
C526        C  0.18831856  0.76385562  0.59703286     0.07000
C527        C  0.20609397  0.76447054  0.55226131    -0.03000
C528        C  0.19080579  0.73560863  0.51911503    -0.07400
C529        C  0.15823850  0.70573688  0.53030496     0.06100
C530        C  0.14154351  0.70466877  0.57624529    -0.02500
Br531      Br  0.10042989  0.66315593  0.59982979    -0.02200
H532        H  0.14284120  0.73215776  0.64344779     0.10000
H533        H  0.20431955  0.73649559  0.48446248     0.08000
Br534      Br  0.25042455  0.80421058  0.53373304    -0.02600
C535        C  0.30243021  0.66020987  0.35903400    -0.09200
C536        C  0.29916012  0.64450255  0.31170908     0.07000
C537        C  0.26754264  0.61363511  0.29934596    -0.03000
C538        C  0.24012846  0.59896766  0.33426187    -0.07400
C539        C  0.24321238  0.61476508  0.38139164     0.06100
C540        C  0.27478447  0.64559276  0.39387055    -0.02500
Br541      Br  0.28173880  0.66824711  0.45815464    -0.02200
H542        H  0.32659405  0.68391469  0.36894768     0.10000
H543        H  0.21562884  0.57582031  0.32373462     0.08000
Br544      Br  0.25867348  0.59226287  0.23370608    -0.02600
C545        C  0.71190669  0.10001279  0.41442458     0.03100
C546        C  0.69628967  0.12039500  0.42654685    -0.13100
C547        C  0.66346934  0.10516918  0.45054428     0.00600
C548        C  0.64662237  0.06946901  0.46328534    -0.11600
C549        C  0.66166654  0.04861902  0.45108287     0.03000
C550        C  0.69460276  0.06417698  0.42712540    -0.11000
H551        H  0.70863321  0.14754284  0.41452745     0.08600
H552        H  0.62129807  0.05770498  0.48214138     0.06200
H553        H  0.70599600  0.04813348  0.41617364     0.06000
C554        C  0.64270259  0.17511153  0.49556361     0.03100
C555        C  0.66170715  0.15793395  0.48370706    -0.13100
C556        C  0.64508537  0.12542008  0.45870330     0.00600
C557        C  0.60961258  0.11066188  0.44444648    -0.11600
C558        C  0.59036489  0.12759021  0.45534539     0.03000
C559        C  0.60736473  0.16041819  0.47947624    -0.11000
H560        H  0.68863509  0.16866914  0.49684755     0.08600
H561        H  0.59658535  0.08533139  0.42570718     0.06200
H562        H  0.59241661  0.17325658  0.48911218     0.06000
C563        C  0.99807189  0.10461950  0.41211156     0.03100
C564        C  0.53479245  0.12366518  0.42051652    -0.13100
C565        C  0.55164459  0.10854372  0.44719638     0.00600
C566        C  0.53158054  0.07402153  0.46487298    -0.11600
C567        C  0.99515191  0.05438772  0.45599272     0.03000
C568        C  0.97844494  0.07005903  0.43045290    -0.11000
H569        H  0.55046164  0.14964728  0.40464309     0.08600
H570        H  0.54451970  0.06214639  0.48523809     0.06200
H571        H  0.95039254  0.05484390  0.42293708     0.06000
C572        C  0.99196900  0.38891883  0.42100529     0.03100
C573        C  0.97361157  0.40640449  0.43528542    -0.13100
C574        C  0.99146105  0.43942482  0.45881974     0.00600
C575        C  0.52760584  0.45445198  0.46881157    -0.11600
C576        C  0.54631561  0.43760968  0.45428534     0.03000
C577        C  0.52830139  0.40461431  0.43091991    -0.11000
H578        H  0.94590293  0.39504567  0.42601311     0.08600
H579        H  0.54143661  0.47977306  0.48748071     0.06200
H580        H  0.54288011  0.39203656  0.41798227     0.06000
C581        C  0.92697416  0.46617699  0.51043714     0.03100
C582        C  0.94166297  0.44525656  0.49608582    -0.13100
C583        C  0.97365902  0.45996974  0.46982200     0.00600
C584        C  0.99019591  0.49547800  0.45630638    -0.11600
C585        C  0.97566309  0.01660789  0.46934854     0.03000
C586        C  0.94366821  0.50169344  0.49599675    -0.11000
H587        H  0.92899984  0.41797847  0.50739606     0.08600
H588        H  0.51467839  0.00680656  0.43530298     0.06200
H589        H  0.93265938  0.01798360  0.50743876     0.06000
C590        C  0.63703847  0.45721389  0.49711557     0.03100
C591        C  0.65729733  0.49293051  0.48423477    -0.13100
C592        C  0.64153776  0.01026777  0.46055629     0.00600
C593        C  0.60548473  0.49129736  0.44879789    -0.11600
C594        C  0.58496277  0.45573204  0.46160488     0.03000
C595        C  0.60097703  0.43869843  0.48522439    -0.11000
H596        H  0.68482642  0.00759343  0.49511844     0.08600
H597        H  0.59312364  0.50445190  0.43029236     0.06200
H598        H  0.58492354  0.41173624  0.49746968     0.06000
Fe599      Fe  0.68008121  0.33583879  0.70500161     1.65800
Fe600      Fe  0.75536554  0.41452883  0.70995986     1.73200
Fe601      Fe  0.75986842  0.33954348  0.70779314     1.54400
O602        O  0.72499273  0.29934103  0.75379177    -0.81700
O603        O  0.78658700  0.41972857  0.64825847    -0.80100
O604        O  0.67812407  0.30599174  0.76610486    -0.84300
O605        O  0.67955079  0.29886584  0.65608775    -0.79100
O606        O  0.78814041  0.36646783  0.77141803    -0.80900
O607        O  0.71969258  0.41735157  0.66198619    -0.83600
C608        C  0.70198194  0.29314714  0.63387588     0.97100
C609        C  0.69607597  0.29114715  0.77565332     1.04600
O610        O  0.73176901  0.36325207  0.70748096    -1.12600
O611        O  0.72632326  0.41378325  0.77187368    -0.75000
O612        O  0.67314215  0.36882320  0.75391837    -0.78500
O613        O  0.73467905  0.31015214  0.64424799    -0.79200
C614        C  0.69328752  0.39614398  0.77930072     0.96000
O615        O  0.67711127  0.36321570  0.64360009    -0.77200
O616        O  0.79461661  0.41940040  0.75833751    -0.82400
C617        C  0.80446481  0.40461828  0.63968555     0.98700
C618        C  0.80326401  0.39920279  0.78053533     1.04600
O619        O  0.79859858  0.37660550  0.66188316    -0.78000
C620        C  0.69232335  0.39621655  0.63748891     1.02900
C621        C  0.99728865  0.10776349  0.99811882     0.03100
C622        C  0.97613244  0.07149797  0.98828570    -0.13100
C623        C  0.99052975  0.05296427  0.96400029     0.00600
C624        C  0.52601351  0.07109522  0.94911078    -0.11600
C625        C  0.54740839  0.10695756  0.95912065     0.03000
C626        C  0.53277239  0.12527557  0.98288474    -0.11000
H627        H  0.94923029  0.05743398  0.00189358     0.08600
H628        H  0.53728536  0.05700151  0.93025085     0.06200
H629        H  0.54941783  0.15289518  0.99161196     0.06000
C630        C  0.92119547  0.46145486  0.92019394     0.03100
C631        C  0.93804984  0.44235425  0.93357369    -0.13100
C632        C  0.97056654  0.45880197  0.95885776     0.00600
C633        C  0.98609355  0.49445669  0.97111810    -0.11600
C634        C  0.97026840  0.01426382  0.95726955     0.03000
C635        C  0.93745371  0.49750642  0.93259156    -0.11000
H636        H  0.92694216  0.41523925  0.92173779     0.08600
H637        H  0.51133482  0.00718655  0.99042133     0.06200
H638        H  0.92550324  0.01284066  0.92068904     0.06000
C639        C  0.99407818  0.39195187  0.00857768     0.03100
C640        C  0.97436085  0.40820264  0.99577990    -0.13100
C641        C  0.99011528  0.43992806  0.96913833     0.00600
C642        C  0.52566290  0.45505890  0.95493855    -0.11600
C643        C  0.54538954  0.43866457  0.96652218     0.03000
C644        C  0.52909804  0.40653982  0.99196401    -0.11000
H645        H  0.94739543  0.39716025  0.00876925     0.08600
H646        H  0.53805952  0.47977895  0.93479978     0.06200
H647        H  0.54421307  0.39384849  0.00131373     0.06000
C648        C  0.63365764  0.45685729  0.91366931     0.03100
C649        C  0.65490342  0.49267383  0.92609773    -0.13100
C650        C  0.64045200  0.01047504  0.95219056     0.00600
C651        C  0.60485605  0.49200706  0.96647993    -0.11600
C652        C  0.58352250  0.45641662  0.95473332     0.03000
C653        C  0.59835703  0.43866591  0.92980989    -0.11000
H654        H  0.68195468  0.00704979  0.91308839     0.08600
H655        H  0.59350240  0.00562127  0.98642511     0.06200
H656        H  0.58198323  0.41110007  0.92070759     0.06000
C657        C  0.70915786  0.10122681  0.99903597     0.03100
C658        C  0.69324493  0.06542001  0.98589325    -0.13100
C659        C  0.66058992  0.04897857  0.96063069     0.00600
C660        C  0.64475407  0.06890375  0.94736207    -0.11600
C661        C  0.66032788  0.10449568  0.95995029     0.03000
C662        C  0.69292375  0.12075860  0.98493538    -0.11000
H663        H  0.70506699  0.05001299  0.99805286     0.08600
H664        H  0.61963173  0.05636361  0.92776653     0.06200
H665        H  0.70473797  0.14808197  0.99589416     0.06000
C666        C  0.63793943  0.17164788  0.90838477     0.03100
C667        C  0.65755081  0.15581013  0.92383703    -0.13100
C668        C  0.64108509  0.12363649  0.94922751     0.00600
C669        C  0.60517681  0.10828568  0.96135836    -0.11600
C670        C  0.58556504  0.12444197  0.94770660     0.03000
C671        C  0.60219249  0.15632348  0.92151485    -0.11000
H672        H  0.68513852  0.16760394  0.91373696     0.08600
H673        H  0.59241651  0.08358032  0.98150836     0.06200
H674        H  0.58693906  0.16831276  0.90920848     0.06000
Fe675      Fe  0.87640522  0.14878043  0.20088483     1.65800
Fe676      Fe  0.87298800  0.22427637  0.20964667     1.73200
Fe677      Fe  0.95253272  0.22744606  0.21333401     1.54400
O678        O  0.95571454  0.19235594  0.26182015    -0.81700
O679        O  0.90098605  0.25612985  0.15030768    -0.80100
O680        O  0.90353699  0.14308668  0.26071470    -0.84300
O681        O  0.91241164  0.14914598  0.15065083    -0.79100
O682        O  0.95202721  0.25567678  0.27572634    -0.80900
O683        O  0.83488229  0.19039286  0.15925744    -0.83600
C684        C  0.94274912  0.17141057  0.13487385     0.97100
C685        C  0.93496746  0.16132623  0.27679795     1.04600
O686        O  0.90077470  0.20013090  0.20803060    -1.12600
O687        O  0.84321161  0.19419969  0.26924849    -0.75000
O688        O  0.83662092  0.14165725  0.25016796    -0.78500
O689        O  0.95988980  0.20257534  0.15183395    -0.79200
C690        C  0.82819639  0.16116108  0.27513769     0.96000
O691        O  0.84708641  0.14837837  0.13954477    -0.77200
O692        O  0.90587318  0.26254113  0.26011410    -0.82400
C693        C  0.93399337  0.27262418  0.14217290     0.98700
C694        C  0.93417975  0.27082176  0.28370120     1.04600
O695        O  0.95551982  0.26597094  0.16537194    -0.78000
C696        C  0.82954458  0.16395172  0.13314850     1.02900
C697        C  0.77322328  0.12316928  0.01583249    -0.09200
C698        C  0.74031443  0.11741741  0.03280264     0.07000
C699        C  0.73744263  0.12774437  0.08210070    -0.03000
C700        C  0.76713708  0.14388924  0.11321710    -0.07400
C701        C  0.79998594  0.14936950  0.09670752     0.06100
C702        C  0.80300398  0.13904541  0.04739776    -0.02500
Br703      Br  0.84746964  0.14793076  0.02064216    -0.02200
H704        H  0.77580941  0.11565664  0.97786025     0.10000
H705        H  0.76427454  0.15116590  0.15123887     0.08000
Br706      Br  0.69304726  0.11838382  0.10997604    -0.02600
C707        C  0.98098005  0.33193004  0.11874411    -0.09200
C708        C  0.94873972  0.30217340  0.10635708     0.07000
C709        C  0.93139582  0.30207599  0.06141822    -0.03000
C710        C  0.94659829  0.33147405  0.02984679    -0.07400
C711        C  0.97892301  0.36115308  0.04233727     0.06100
C712        C  0.99594197  0.36133711  0.08764225    -0.02500
Br713      Br  0.53826126  0.40175568  0.11132822    -0.02200
H714        H  0.99420039  0.33275007  0.15370452     0.10000
H715        H  0.93331189  0.33106692  0.99517193     0.08000
Br716      Br  0.88803860  0.26212160  0.03986320    -0.02600
C717        C  0.00309537  0.14359897  0.07394001    -0.09200
C718        C  0.98413077  0.12659749  0.03011533     0.07000
C719        C  0.95294853  0.12732437  0.01881461    -0.03000
C720        C  0.94039965  0.14324140  0.05248888    -0.07400
C721        C  0.95900191  0.15942867  0.09683562     0.06100
C722        C  0.99089090  0.15998710  0.10707637    -0.02500
Br723      Br  0.51697412  0.17973559  0.16817234    -0.02200
H724        H  0.52701535  0.14313746  0.08334239     0.10000
H725        H  0.91586713  0.14274949  0.04425729     0.08000
Br726      Br  0.92736443  0.10824221  0.95725121    -0.02600
C727        C  0.68315794  0.23138544  0.79748936    -0.09200
C728        C  0.68212050  0.26170911  0.81143681     0.07000
C729        C  0.66685600  0.26251061  0.85783834    -0.03000
C730        C  0.65304193  0.23313293  0.88941933    -0.07400
C731        C  0.65395652  0.20272770  0.87523552     0.06100
C732        C  0.66881110  0.20187764  0.82844165    -0.03900
Br733      Br  0.66745679  0.16026996  0.80256477    -0.02200
H734        H  0.69407614  0.23017978  0.76135614     0.10000
H735        H  0.64155225  0.23399483  0.92519281     0.08000
Br736      Br  0.66554342  0.30339042  0.88069650    -0.02600
C737        C  0.83144852  0.39780604  0.86217308    -0.09200
C738        C  0.83293199  0.41509995  0.81695828     0.07000
C739        C  0.86333582  0.44763537  0.80664012    -0.03000
C740        C  0.89107212  0.46231772  0.84129233    -0.07400
C741        C  0.88968957  0.44528338  0.88661967     0.06100
C742        C  0.85938333  0.41264673  0.89701764    -0.02500
Br743      Br  0.85399097  0.38798802  0.95899193    -0.02200
H744        H  0.80828659  0.37290331  0.87075221     0.10000
H745        H  0.91446147  0.48685966  0.83197816     0.08000
Br746      Br  0.87015835  0.47218888  0.74402928    -0.02600
C747        C  0.64547285  0.40800815  0.80362416    -0.09200
C748        C  0.67707983  0.40894010  0.81658219     0.07000
C749        C  0.69318087  0.42379528  0.86316305    -0.03000
C750        C  0.67857382  0.43901720  0.89453957    -0.07400
C751        C  0.64755740  0.43912025  0.88073105     0.06100
C752        C  0.63072118  0.42294015  0.83494247    -0.02500
Br753      Br  0.58908235  0.42267909  0.81077192    -0.02200
H754        H  0.63284078  0.39679917  0.76787229     0.10000
H755        H  0.69134847  0.45063961  0.93001995     0.08000
Br756      Br  0.73379295  0.42204749  0.88694786    -0.02600
C757        C  0.66450056  0.39495284  0.55460863    -0.09200
C758        C  0.67764476  0.41122882  0.60147877     0.07000
C759        C  0.67686950  0.44222302  0.61342057    -0.03000
C760        C  0.66449895  0.45701958  0.57814508    -0.07400
C761        C  0.65190514  0.44120118  0.53108295     0.06100
C762        C  0.65156298  0.40964929  0.51946281    -0.02500
Br763      Br  0.63484045  0.38640257  0.45576668    -0.02200
H764        H  0.66475069  0.37105949  0.54504096     0.10000
H765        H  0.66366110  0.48055882  0.58816762     0.08000
Br766      Br  0.68934973  0.46410715  0.67877882    -0.02600
C767        C  0.86430165  0.44988365  0.52740166    -0.09200
C768        C  0.89566199  0.45137767  0.54371956     0.07000
C769        C  0.89665329  0.43813974  0.59168111    -0.03000
C770        C  0.86652214  0.42296342  0.62167825    -0.07400
C771        C  0.83504237  0.42102569  0.60539705     0.06100
C772        C  0.83400941  0.43474244  0.55781386    -0.02500
Br773      Br  0.79141754  0.43107983  0.53131439    -0.02200
H774        H  0.86318427  0.45981767  0.49052420     0.10000
H775        H  0.86787916  0.41308033  0.65852399     0.08000
Br776      Br  0.93888051  0.44155968  0.61945638    -0.02600
C777        C  0.96056519  0.29754384  0.36732025    -0.09200
C778        C  0.94730071  0.30021084  0.32024940     0.07000
C779        C  0.94755486  0.33166522  0.30796335    -0.03000
C780        C  0.96105781  0.35958100  0.34215090    -0.07400
C781        C  0.97465367  0.35713012  0.38884670     0.06100
C782        C  0.97388914  0.32559328  0.40174913    -0.02500
Br783      Br  0.98939799  0.31926277  0.46658782    -0.02200
H784        H  0.96026821  0.27349882  0.37749868     0.10000
H785        H  0.96209865  0.38390326  0.33143572     0.08000
Br786      Br  0.93281515  0.33952535  0.24333797    -0.02600
C787        C  0.96957215  0.16607441  0.35390518    -0.09200
C788        C  0.94870370  0.14568453  0.31338687     0.07000
C789        C  0.94353038  0.11156804  0.30646293    -0.03000
C790        C  0.95946977  0.09872375  0.33935470    -0.07400
C791        C  0.98060410  0.11914981  0.37972586     0.06100
C792        C  0.98511049  0.15299781  0.38731447    -0.02500
Br793      Br  0.01056041  0.18184088  0.44392163    -0.02200
H794        H  0.97362694  0.19226947  0.35978713     0.10000
H795        H  0.95608823  0.07288146  0.33246682     0.08000
Br796      Br  0.91759784  0.08238369  0.25031862    -0.02600
C797        C  0.65620250  0.23368229  0.60834605    -0.09200
C798        C  0.68831861  0.26385565  0.59703283     0.07000
C799        C  0.70609408  0.26447050  0.55226136    -0.03000
C800        C  0.69080592  0.23560858  0.51911510    -0.07400
C801        C  0.65823855  0.20573689  0.53030490     0.06100
C802        C  0.64154358  0.20466881  0.57624524    -0.02500
Br803      Br  0.60043005  0.16315597  0.59982980    -0.02200
H804        H  0.64284132  0.23215776  0.64344780     0.10000
H805        H  0.70431968  0.23649553  0.48446250     0.08000
Br806      Br  0.75042453  0.30421064  0.53373302    -0.02600
C807        C  0.80243019  0.16020994  0.35903394    -0.09200
C808        C  0.79916010  0.14450258  0.31170904     0.07000
C809        C  0.76754263  0.11363516  0.29934593    -0.03000
C810        C  0.74012846  0.09896770  0.33426184    -0.07400
C811        C  0.74321240  0.11476507  0.38139166     0.06100
C812        C  0.77478447  0.14559280  0.39387053    -0.02500
Br813      Br  0.78173878  0.16824718  0.45815463    -0.02200
H814        H  0.82659403  0.18391477  0.36894756     0.10000
H815        H  0.71562882  0.07582036  0.32373457     0.08000
Br816      Br  0.75867364  0.09226291  0.23370608    -0.02600
C817        C  0.71190670  0.60001280  0.41442459     0.03100
C818        C  0.69628966  0.62039502  0.42654682    -0.13100
C819        C  0.66346932  0.60516918  0.45054421     0.00600
C820        C  0.64662236  0.56946902  0.46328536    -0.11600
C821        C  0.66166656  0.54861903  0.45108289     0.03000
C822        C  0.69460276  0.56417701  0.42712544    -0.11000
H823        H  0.70863318  0.64754285  0.41452744     0.08600
H824        H  0.62129813  0.55770503  0.48214139     0.06200
H825        H  0.70599605  0.54813348  0.41617362     0.06000
C826        C  0.64270260  0.67511152  0.49556362     0.03100
C827        C  0.66170715  0.65793391  0.48370705    -0.13100
C828        C  0.64508531  0.62542004  0.45870328     0.00600
C829        C  0.60961254  0.61066187  0.44444649    -0.11600
C830        C  0.59036487  0.62759021  0.45534538     0.03000
C831        C  0.60736474  0.66041819  0.47947627    -0.11000
H832        H  0.68863504  0.66866905  0.49684745     0.08600
H833        H  0.59658528  0.58533135  0.42570719     0.06200
H834        H  0.59241664  0.67325660  0.48911224     0.06000
C835        C  0.99807190  0.60461951  0.41211158     0.03100
C836        C  0.53479244  0.62366515  0.42051652    -0.13100
C837        C  0.55164458  0.60854369  0.44719641     0.00600
C838        C  0.53158052  0.57402149  0.46487297    -0.11600
C839        C  0.99515192  0.55438766  0.45599270     0.03000
C840        C  0.97844495  0.57005899  0.43045288    -0.11000
H841        H  0.55046165  0.64964726  0.40464309     0.08600
H842        H  0.54451970  0.56214633  0.48523813     0.06200
H843        H  0.95039255  0.55484387  0.42293705     0.06000
C844        C  0.99196904  0.88891890  0.42100526     0.03100
C845        C  0.97361160  0.90640458  0.43528540    -0.13100
C846        C  0.99146112  0.93942493  0.45881976     0.00600
C847        C  0.52760592  0.95445209  0.46881153    -0.11600
C848        C  0.54631564  0.93760973  0.45428536     0.03000
C849        C  0.52830139  0.90461435  0.43091994    -0.11000
H850        H  0.94590305  0.89504579  0.42601313     0.08600
H851        H  0.54143673  0.97977320  0.48748066     0.06200
H852        H  0.54288008  0.89203656  0.41798238     0.06000
C853        C  0.92697416  0.96617704  0.51043711     0.03100
C854        C  0.94166300  0.94525665  0.49608578    -0.13100
C855        C  0.97365908  0.95996984  0.46982205     0.00600
C856        C  0.99019594  0.99547810  0.45630643    -0.11600
C857        C  0.97566308  0.51660782  0.46934853     0.03000
C858        C  0.94366820  0.00169351  0.49599675    -0.11000
H859        H  0.92899984  0.91797851  0.50739599     0.08600
H860        H  0.51467831  0.50680641  0.43530296     0.06200
H861        H  0.93265938  0.51798356  0.50743876     0.06000
C862        C  0.63703848  0.95721391  0.49711556     0.03100
C863        C  0.65729734  0.99293051  0.48423475    -0.13100
C864        C  0.64153775  0.51026777  0.46055631     0.00600
C865        C  0.60548473  0.99129738  0.44879787    -0.11600
C866        C  0.58496278  0.95573208  0.46160491     0.03000
C867        C  0.60097701  0.93869844  0.48522442    -0.11000
H868        H  0.68482641  0.50759344  0.49511847     0.08600
H869        H  0.59312366  0.00445191  0.43029227     0.06200
H870        H  0.58492356  0.91173634  0.49746967     0.06000
Fe871      Fe  0.68008120  0.83583876  0.70500160     1.65800
Fe872      Fe  0.75536553  0.91452882  0.70995986     1.73200
Fe873      Fe  0.75986839  0.83954345  0.70779316     1.54400
O874        O  0.72499265  0.79934096  0.75379175    -0.81700
O875        O  0.78658699  0.91972859  0.64825843    -0.80100
O876        O  0.67812401  0.80599172  0.76610486    -0.84300
O877        O  0.67955078  0.79886580  0.65608779    -0.79100
O878        O  0.78814037  0.86646783  0.77141804    -0.80900
O879        O  0.71969258  0.91735153  0.66198621    -0.83600
C880        C  0.70198192  0.79314709  0.63387592     0.97100
C881        C  0.69607588  0.79114710  0.77565331     1.04600
O882        O  0.73176900  0.86325204  0.70748096    -1.12600
O883        O  0.72632324  0.91378319  0.77187370    -0.75000
O884        O  0.67314212  0.86882315  0.75391838    -0.78500
O885        O  0.73467904  0.81015209  0.64424800    -0.79200
C886        C  0.69328748  0.89614393  0.77930073     0.96000
O887        O  0.67711126  0.86321568  0.64360006    -0.77200
O888        O  0.79461662  0.91940042  0.75833753    -0.82400
C889        C  0.80446478  0.90461828  0.63968555     0.98700
C890        C  0.80326399  0.89920280  0.78053536     1.04600
O891        O  0.79859854  0.87660549  0.66188320    -0.78000
C892        C  0.69232335  0.89621654  0.63748892     1.02900
C893        C  0.99728863  0.60776343  0.99811884     0.03100
C894        C  0.97613243  0.57149792  0.98828571    -0.13100
C895        C  0.99052974  0.55296422  0.96400031     0.00600
C896        C  0.52601348  0.57109521  0.94911072    -0.11600
C897        C  0.54740837  0.60695757  0.95912063     0.03000
C898        C  0.53277239  0.62527557  0.98288478    -0.11000
H899        H  0.94923023  0.55743388  0.00189359     0.08600
H900        H  0.53728533  0.55700157  0.93025080     0.06200
H901        H  0.54941781  0.65289515  0.99161201     0.06000
C902        C  0.92119543  0.96145490  0.92019403     0.03100
C903        C  0.93804976  0.94235427  0.93357386    -0.13100
C904        C  0.97056647  0.95880199  0.95885792     0.00600
C905        C  0.98609352  0.99445672  0.97111812    -0.11600
C906        C  0.97026838  0.51426377  0.95726957     0.03000
C907        C  0.93745372  0.99750647  0.93259154    -0.11000
H908        H  0.92694210  0.91523927  0.92173799     0.08600
H909        H  0.51133474  0.50718651  0.99042134     0.06200
H910        H  0.92550321  0.51284059  0.92068910     0.06000
C911        C  0.99407818  0.89195197  0.00857778     0.03100
C912        C  0.97436082  0.90820269  0.99577998    -0.13100
C913        C  0.99011522  0.93992809  0.96913836     0.00600
C914        C  0.52566291  0.95505891  0.95493850    -0.11600
C915        C  0.54538955  0.93866460  0.96652215     0.03000
C916        C  0.52909810  0.90653987  0.99196407    -0.11000
H917        H  0.94739543  0.89716029  0.00876936     0.08600
H918        H  0.53805952  0.97977897  0.93479969     0.06200
H919        H  0.54421311  0.89384859  0.00131378     0.06000
C920        C  0.63365762  0.95685727  0.91366936     0.03100
C921        C  0.65490338  0.99267383  0.92609772    -0.13100
C922        C  0.64045202  0.51047504  0.95219060     0.00600
C923        C  0.60485604  0.99200707  0.96647996    -0.11600
C924        C  0.58352249  0.95641662  0.95473331     0.03000
C925        C  0.59835702  0.93866594  0.92980988    -0.11000
H926        H  0.68195467  0.50704978  0.91308843     0.08600
H927        H  0.59350240  0.50562130  0.98642509     0.06200
H928        H  0.58198315  0.91110001  0.92070748     0.06000
C929        C  0.70915790  0.60122688  0.99903594     0.03100
C930        C  0.69324500  0.56542006  0.98589324    -0.13100
C931        C  0.66058996  0.54897859  0.96063071     0.00600
C932        C  0.64475408  0.56890375  0.94736209    -0.11600
C933        C  0.66032788  0.60449568  0.95995029     0.03000
C934        C  0.69292375  0.62075864  0.98493538    -0.11000
H935        H  0.70506708  0.55001311  0.99805284     0.08600
H936        H  0.61963175  0.55636359  0.92776657     0.06200
H937        H  0.70473794  0.64808199  0.99589415     0.06000
C938        C  0.63793943  0.67164788  0.90838477     0.03100
C939        C  0.65755082  0.65581016  0.92383710    -0.13100
C940        C  0.64108510  0.62363649  0.94922755     0.00600
C941        C  0.60517682  0.60828570  0.96135834    -0.11600
C942        C  0.58556503  0.62444196  0.94770658     0.03000
C943        C  0.60219248  0.65632347  0.92151480    -0.11000
H944        H  0.68513857  0.66760401  0.91373705     0.08600
H945        H  0.59241647  0.58358025  0.98150839     0.06200
H946        H  0.58693905  0.66831274  0.90920840     0.06000
Fe947      Fe  0.87640524  0.64878044  0.20088478     1.65800
Fe948      Fe  0.87298800  0.72427643  0.20964668     1.73200
Fe949      Fe  0.95253272  0.72744607  0.21333400     1.54400
O950        O  0.95571455  0.69235598  0.26182014    -0.81700
O951        O  0.90098609  0.75612995  0.15030771    -0.80100
O952        O  0.90353703  0.64308669  0.26071468    -0.84300
O953        O  0.91241167  0.64914597  0.15065081    -0.79100
O954        O  0.95202722  0.75567677  0.27572634    -0.80900
O955        O  0.83488233  0.69039291  0.15925745    -0.83600
C956        C  0.94274914  0.67141056  0.13487383     0.97100
C957        C  0.93496749  0.66132628  0.27679794     1.04600
O958        O  0.90077469  0.70013093  0.20803058    -1.12600
O959        O  0.84321162  0.69419974  0.26924851    -0.75000
O960        O  0.83662092  0.64165732  0.25016781    -0.78500
O961        O  0.95988982  0.70257534  0.15183394    -0.79200
C962        C  0.82819639  0.66116111  0.27513762     0.96000
O963        O  0.84708642  0.64837838  0.13954475    -0.77200
O964        O  0.90587321  0.76254117  0.26011411    -0.82400
C965        C  0.93399340  0.77262423  0.14217287     0.98700
C966        C  0.93417977  0.77082178  0.28370119     1.04600
O967        O  0.95551985  0.76597098  0.16537194    -0.78000
C968        C  0.82954463  0.66395177  0.13314846     1.02900
C969        C  0.77322330  0.62316927  0.01583252    -0.09200
C970        C  0.74031448  0.61741749  0.03280262     0.07000
C971        C  0.73744270  0.62774445  0.08210071    -0.03000
C972        C  0.76713717  0.64388935  0.11321705    -0.07400
C973        C  0.79998601  0.64936961  0.09670748     0.06100
C974        C  0.80300402  0.63904540  0.04739777    -0.02500
Br975      Br  0.84746964  0.64793069  0.02064216    -0.02200
H976        H  0.77580942  0.61565656  0.97786031     0.10000
H977        H  0.76427465  0.65116606  0.15123887     0.08000
Br978      Br  0.69304737  0.61838401  0.10997604    -0.02600
C979        C  0.98098007  0.83193003  0.11874403    -0.09200
C980        C  0.94873974  0.80217341  0.10635699     0.07000
C981        C  0.93139576  0.80207604  0.06141819    -0.03000
C982        C  0.94659824  0.83147417  0.02984687    -0.07400
C983        C  0.97892300  0.86115315  0.04233731     0.06100
C984        C  0.99594200  0.86133712  0.08764222    -0.02500
Br985      Br  0.53826128  0.90175563  0.11132825    -0.02200
H986        H  0.99420041  0.83275003  0.15370444     0.10000
H987        H  0.93331180  0.83106714  0.99517199     0.08000
Br988      Br  0.88803846  0.76212163  0.03986323    -0.02600
C989        C  0.00309539  0.64359896  0.07393996    -0.09200
C990        C  0.98413075  0.62659743  0.03011534     0.07000
C991        C  0.95294851  0.62732430  0.01881461    -0.03000
C992        C  0.94039963  0.64324133  0.05248887    -0.07400
C993        C  0.95900194  0.65942870  0.09683555     0.06100
C994        C  0.99089098  0.65998720  0.10707623    -0.02500
Br995      Br  0.51697410  0.67973553  0.16817237    -0.02200
H996        H  0.52701539  0.64313743  0.08334251     0.10000
H997        H  0.91586709  0.64274939  0.04425731     0.08000
Br998      Br  0.92736442  0.60824214  0.95725121    -0.02600
C999        C  0.68315790  0.73138542  0.79748941    -0.09200
C1000       C  0.68212039  0.76170904  0.81143676     0.07000
C1001       C  0.66685589  0.76251054  0.85783831    -0.03000
C1002       C  0.65304190  0.73313290  0.88941934    -0.07400
C1003       C  0.65395650  0.70272768  0.87523552     0.06100
C1004       C  0.66881109  0.70187761  0.82844165    -0.03900
Br1005     Br  0.66745678  0.66026992  0.80256478    -0.02200
H1006       H  0.69407623  0.73017978  0.76135611     0.10000
H1007       H  0.64155226  0.73399482  0.92519286     0.08000
Br1008     Br  0.66554340  0.80339039  0.88069652    -0.02600
C1009       C  0.83144853  0.89780599  0.86217309    -0.09200
C1010       C  0.83293197  0.91509992  0.81695833     0.07000
C1011       C  0.86333574  0.94763537  0.80664022    -0.03000
C1012       C  0.89107205  0.96231780  0.84129249    -0.07400
C1013       C  0.88968949  0.94528337  0.88661980     0.06100
C1014       C  0.85938331  0.91264667  0.89701767    -0.02500
Br1015     Br  0.85399095  0.88798794  0.95899195    -0.02200
H1016       H  0.80828653  0.87290320  0.87075220     0.10000
H1017       H  0.91446122  0.98685962  0.83197847     0.08000
Br1018     Br  0.87015816  0.97218884  0.74402932    -0.02600
C1019       C  0.64547289  0.90800826  0.80362411    -0.09200
C1020       C  0.67707982  0.90894010  0.81658222     0.07000
C1021       C  0.69318082  0.92379522  0.86316309    -0.03000
C1022       C  0.67857377  0.93901714  0.89453972    -0.07400
C1023       C  0.64755736  0.93912022  0.88073112     0.06100
C1024       C  0.63072123  0.92294025  0.83494247    -0.02500
Br1025     Br  0.58908234  0.92267904  0.81077193    -0.02200
H1026       H  0.63284085  0.89679936  0.76787231     0.10000
H1027       H  0.69134835  0.95063944  0.93001994     0.08000
Br1028     Br  0.73379292  0.92204743  0.88694785    -0.02600
C1029       C  0.66450060  0.89495291  0.55460866    -0.09200
C1030       C  0.67764482  0.91122889  0.60147878     0.07000
C1031       C  0.67686962  0.94222314  0.61342055    -0.03000
C1032       C  0.66449904  0.95701967  0.57814503    -0.07400
C1033       C  0.65190516  0.94120122  0.53108295     0.06100
C1034       C  0.65156304  0.90964934  0.51946281    -0.02500
Br1035     Br  0.63484045  0.88640253  0.45576671    -0.02200
H1036       H  0.66475066  0.87105948  0.54504103     0.10000
H1037       H  0.66366121  0.98055895  0.58816755     0.08000
Br1038     Br  0.68934986  0.96410733  0.67877880    -0.02600
C1039       C  0.86430161  0.94988359  0.52740162    -0.09200
C1040       C  0.89566198  0.95137770  0.54371954     0.07000
C1041       C  0.89665326  0.93813980  0.59168113    -0.03000
C1042       C  0.86652211  0.92296339  0.62167823    -0.07400
C1043       C  0.83504235  0.92102564  0.60539705     0.06100
C1044       C  0.83400939  0.93474237  0.55781384    -0.02500
Br1045     Br  0.79141752  0.93107976  0.53131439    -0.02200
H1046       H  0.86318421  0.95981759  0.49052414     0.10000
H1047       H  0.86787914  0.91308027  0.65852396     0.08000
Br1048     Br  0.93888038  0.94155964  0.61945642    -0.02600
C1049       C  0.96056522  0.79754389  0.36732024    -0.09200
C1050       C  0.94730074  0.80021084  0.32024940     0.07000
C1051       C  0.94755483  0.83166523  0.30796337    -0.03000
C1052       C  0.96105769  0.85958095  0.34215098    -0.07400
C1053       C  0.97465365  0.85713015  0.38884671     0.06100
C1054       C  0.97388919  0.82559331  0.40174911    -0.02500
Br1055     Br  0.98939799  0.81926274  0.46658781    -0.02200
H1056       H  0.96026826  0.77349878  0.37749871     0.10000
H1057       H  0.96209845  0.88390324  0.33143579     0.08000
Br1058     Br  0.93281526  0.83952550  0.24333797    -0.02600
C1059       C  0.96957226  0.66607452  0.35390514    -0.09200
C1060       C  0.94870379  0.64568464  0.31338685     0.07000
C1061       C  0.94353043  0.61156812  0.30646290    -0.03000
C1062       C  0.95946982  0.59872387  0.33935471    -0.07400
C1063       C  0.98060415  0.61914988  0.37972587     0.06100
C1064       C  0.98511060  0.65299795  0.38731445    -0.02500
Br1065     Br  0.01056053  0.68184105  0.44392161    -0.02200
H1066       H  0.97362707  0.69226968  0.35978711     0.10000
H1067       H  0.95608821  0.57288144  0.33246683     0.08000
Br1068     Br  0.91759765  0.58238366  0.25031871    -0.02600
C1069       C  0.65620243  0.73368226  0.60834599    -0.09200
C1070       C  0.68831854  0.76385563  0.59703284     0.07000
C1071       C  0.70609399  0.76447054  0.55226131    -0.03000
C1072       C  0.69080588  0.73560862  0.51911509    -0.07400
C1073       C  0.65823857  0.70573688  0.53030491     0.06100
C1074       C  0.64154356  0.70466877  0.57624523    -0.02500
Br1075     Br  0.60043005  0.66315590  0.59982979    -0.02200
H1076       H  0.64284118  0.73215772  0.64344780     0.10000
H1077       H  0.70431971  0.73649560  0.48446250     0.08000
Br1078     Br  0.75042453  0.80421060  0.53373304    -0.02600
C1079       C  0.80243021  0.66020988  0.35903392    -0.09200
C1080       C  0.79916012  0.64450254  0.31170901     0.07000
C1081       C  0.76754263  0.61363511  0.29934592    -0.03000
C1082       C  0.74012846  0.59896766  0.33426187    -0.07400
C1083       C  0.74321241  0.61476506  0.38139166     0.06100
C1084       C  0.77478449  0.64559276  0.39387052    -0.02500
Br1085     Br  0.78173878  0.66824712  0.45815463    -0.02200
H1086       H  0.82659405  0.68391472  0.36894756     0.10000
H1087       H  0.71562882  0.57582033  0.32373461     0.08000
Br1088     Br  0.75867344  0.59226287  0.23370606    -0.02600
loop_ 
_geom_bond_atom_site_label_1 
_geom_bond_atom_site_label_2 
_geom_bond_distance 
_geom_bond_site_symmetry_2 
_ccdc_geom_bond_type 
C1            C2   1.405       .  A
C1            C6   1.407       .  A
C1          C267   1.477       .  S
C2            C3   1.400       .  A
C2            H7   1.084       .  S
C3            C4   1.403       .  A
C3           C12   1.479       .  S
C4            C5   1.403       .  A
C4            H8   1.084       .  S
C5            C6   1.403       .  A
C5           C48   1.484       .  S
C6            H9   1.084       .  S
C10          C11   1.406       .  A
C10          C15   1.411       .  A
C10         C257   1.485       .  S
C11          C12   1.404       .  A
C11          H16   1.084       .  S
C12          C13   1.402       .  A
C13          C14   1.400       .  A
C13          H17   1.085       .  S
C14          C15   1.404       .  A
C14          C21   1.484       .  S
C15          H18   1.083       .  S
C19          C24   1.409       .  A
C19         C564   1.411       .  A
C19         C247   1.487       .  S
C20          C21   1.403       .  A
C20         C563   1.411   1_455  A
C20          H25   1.083       .  S
C21          C22   1.403       .  A
C22         C567   1.403   1_455  A
C22          H26   1.084       .  S
C23          C24   1.401       .  A
C23         C566   1.403       .  A
C23          C41   1.484       .  S
C24          H27   1.084       .  S
C28          C29   1.409       .  A
C28         C577   1.406       .  A
C28         C237   1.481       .  S
C29          C30   1.404       .  A
C29          H34   1.084       .  S
C30         C575   1.401       .  A
C30          C39   1.482       .  S
C31          C32   1.400       .  A
C31         C574   1.401   1_455  A
C31          H35   1.085       .  S
C32          C33   1.402       .  A
C32          C50   1.479       .  S
C33         C572   1.406   1_455  A
C33          H36   1.084       .  S
C37          C38   1.408       .  A
C37          C42   1.408       .  A
C37         C224   1.481       .  S
C38          C39   1.401       .  A
C38          H43   1.083       .  S
C39          C40   1.401       .  A
C40         C313   1.402       .  A
C40         H860   1.084       .  S
C41         C312   1.402   1_545  A
C41         C314   1.406       .  A
C42         C313   1.406       .  A
C42         H317   1.084       .  S
H44         C856   1.084   1_445  S
H45         C314   1.084       .  S
C46          C47   1.408       .  A
C46          C51   1.403       .  A
C46         C217   1.477       .  S
C47         C320   1.403       .  A
C47         H324   1.084       .  S
C48         C319   1.403   1_545  A
C48         C321   1.403   1_545  A
C49          C50   1.403       .  A
C49         C320   1.403       .  A
C49          H53   1.084       .  S
C50          C51   1.400       .  A
C51          H54   1.084       .  S
H52         C319   1.084   1_545  S
Fe55         O71   2.068       .  S
Fe55         O61   2.067       .  S
Fe55         O68   2.073       .  S
Fe55         O60   2.061       .  S
Fe55         O66   1.963       .  S
Fe56         O59   2.071       .  S
Fe56         O63   2.062       .  S
Fe56         O67   2.066       .  S
Fe56         O72   2.065       .  S
Fe56         O66   1.956       .  S
Fe57         O75   2.067       .  S
Fe57         O62   2.077       .  S
Fe57         O69   2.073       .  S
Fe57         O58   2.066       .  S
Fe57         O66   1.963       .  S
O58          C65   1.270       .  A
O59          C73   1.271       .  A
O60          C65   1.269       .  A
O61          C64   1.271       .  A
O62          C74   1.271       .  A
O63          C76   1.268       .  A
C64         C254   1.482       .  S
C64          O69   1.270       .  A
C65         C184   1.472       .  S
O67          C70   1.270       .  A
O68          C70   1.271       .  A
C70         C204   1.479       .  S
O71          C76   1.269       .  A
O72          C74   1.268       .  A
C73         C227   1.477       .  S
C73          O75   1.270       .  A
C74         C194   1.483       .  S
C76         C214   1.476       .  S
C77          C78   1.412       .  A
C77         C626   1.406       .  A
C77         C174   1.484   1_556  S
C78          C79   1.406       .  A
C78          H83   1.084   1_556  S
C79         C624   1.404       .  A
C79          C90   1.485       .  S
C80          C81   1.400       .  A
C80         C623   1.404   1_455  A
C80          H84   1.085       .  S
C81          C82   1.400       .  A
C81         C126   1.480       .  S
C82         C621   1.406   1_455  A
C82          H85   1.084       .  S
C86          C87   1.408       .  A
C86          C91   1.413       .  A
C86         C197   1.489       .  S
C87          C88   1.403       .  A
C87          H92   1.084       .  S
C88          C89   1.399       .  A
C88          C97   1.480       .  S
C89         C362   1.402       .  A
C89         H909   1.085       .  S
C90         C361   1.402   1_545  A
C90         C363   1.405   1_545  A
C91         C362   1.405       .  A
C91         H366   1.083       .  S
H93         C905   1.085   1_445  S
H94         C363   1.083   1_545  S
C95          C96   1.405   1_554  A
C95         C644   1.405   1_554  A
C95         C167   1.478       .  S
C96          C97   1.402       .  A
C96         H101   1.084   1_556  S
C97         C642   1.405       .  A
C98          C99   1.403       .  A
C98         C641   1.404   1_455  A
C98         H102   1.084       .  S
C99         C100   1.399       .  A
C99         C108   1.481       .  S
C100        C639   1.405   1_456  A
C100        H103   1.083   1_556  S
C104        C105   1.411       .  A
C104        C109   1.407       .  A
C104        C207   1.485       .  S
C105        C378   1.405       .  A
C105        H382   1.084       .  S
C106        C377   1.405   1_545  A
C106        C379   1.404   1_545  A
C106        C115   1.484       .  S
C107        C108   1.399       .  A
C107        C378   1.404       .  A
C107        H383   1.084       .  S
C108        C109   1.401       .  A
C109        H112   1.083       .  S
H110        C377   1.084   1_545  S
H111        C379   1.084   1_545  S
C113        C114   1.410       .  A
C113        C118   1.407       .  A
C113        C154   1.482   1_556  S
C114        C115   1.407       .  A
C114        H119   1.084       .  S
C115        C116   1.403       .  A
C116        C117   1.399       .  A
C116        H120   1.085       .  S
C117        C118   1.402       .  A
C117        C124   1.481       .  S
C118        H121   1.083       .  S
C122        C123   1.406       .  A
C122        C127   1.404       .  A
C122        C187   1.477       .  S
C123        C124   1.400       .  A
C123        H128   1.083       .  S
C124        C125   1.404       .  A
C125        C126   1.404       .  A
C125        H129   1.084       .  S
C126        C127   1.401       .  A
C127        H130   1.084       .  S
Fe131       O147   2.065       .  S
Fe131       O137   2.056       .  S
Fe131       O144   2.072       .  S
Fe131       O136   2.069       .  S
Fe131       O142   1.966       .  S
Fe132       O135   2.060       .  S
Fe132       O139   2.074       .  S
Fe132       O143   2.060       .  S
Fe132       O148   2.067       .  S
Fe132       O142   1.968       .  S
Fe133       O151   2.070       .  S
Fe133       O138   2.072       .  S
Fe133       O145   2.073       .  S
Fe133       O134   2.065       .  S
Fe133       O142   1.969       .  S
O134        C141   1.269       .  A
O135        C149   1.271       .  A
O136        C141   1.271       .  A
O137        C140   1.266       .  A
O138        C150   1.268       .  A
O139        C152   1.268       .  A
C140        C177   1.472       .  S
C140        O145   1.271       .  A
C141        C244   1.478       .  S
O143        C146   1.270       .  A
O144        C146   1.272       .  A
C146        C264   1.473       .  S
O147        C152   1.266       .  A
O148        C150   1.267       .  A
C149        C164   1.475       .  S
C149        O151   1.273       .  A
C150        C234   1.481       .  S
C152        C157   1.479       .  S
C153        C154   1.405       .  A
C153        C158   1.406       .  A
C153        H160   1.083   1_554  S
C154        C155   1.409       .  A
C155        C156   1.397       .  A
C155       Br162   1.921       .  S
C156        C157   1.403       .  A
C156        H161   1.083       .  S
C157        C158   1.411       .  A
C158       Br159   1.918       .  S
C163        C164   1.403       .  A
C163        C168   1.393       .  A
C163        H170   1.083       .  S
C164        C165   1.411       .  A
C165        C166   1.401       .  A
C165       Br172   1.920       .  S
C166        C167   1.405       .  A
C166        H171   1.083   1_554  S
C167        C168   1.411       .  A
C168       Br713   1.923       .  S
Br169       C712   1.923   1_455  S
C173        C174   1.406       .  A
C173        C178   1.397       .  A
C173        H724   1.084       .  S
C174        C175   1.410       .  A
C175        C176   1.402       .  A
C175       Br182   1.919   1_554  S
C176        C177   1.404       .  A
C176        H181   1.083       .  S
C177        C178   1.407       .  A
C178       Br723   1.921       .  S
Br179       C722   1.921   1_455  S
H180        C717   1.084       .  S
C183        C184   1.403       .  A
C183        C188   1.394       .  A
C183        H190   1.084       .  S
C184        C185   1.409       .  A
C185        C186   1.400       .  A
C185       Br192   1.920       .  S
C186        C187   1.405       .  A
C186        H191   1.083       .  S
C187        C188   1.410       .  A
C188       Br189   1.922       .  S
C193        C194   1.405       .  A
C193        C198   1.405       .  A
C193        H200   1.083       .  S
C194        C195   1.413       .  A
C195        C196   1.396       .  A
C195       Br202   1.923       .  S
C196        C197   1.403       .  A
C196        H201   1.084       .  S
C197        C198   1.414       .  A
C198       Br199   1.920       .  S
C203        C204   1.403       .  A
C203        C208   1.397       .  A
C203        H210   1.084       .  S
C204        C205   1.410       .  A
C205        C206   1.403       .  A
C205       Br212   1.919       .  S
C206        C207   1.405       .  A
C206        H211   1.083       .  S
C207        C208   1.414       .  A
C208       Br209   1.923       .  S
C213        C214   1.405       .  A
C213        C218   1.403       .  A
C213        H220   1.083       .  S
C214        C215   1.412       .  A
C215        C216   1.393       .  A
C215       Br222   1.923       .  S
C216        C217   1.400       .  A
C216        H221   1.084       .  S
C217        C218   1.411       .  A
C218       Br219   1.919       .  S
C223        C224   1.406       .  A
C223        C228   1.405       .  A
C223        H230   1.083       .  S
C224        C225   1.409       .  A
C225        C226   1.394       .  A
C225       Br232   1.921       .  S
C226        C227   1.403       .  A
C226        H231   1.084       .  S
C227        C228   1.410       .  A
C228       Br229   1.919       .  S
C233        C234   1.406       .  A
C233        C238   1.404       .  A
C233        H240   1.083       .  S
C234        C235   1.413       .  A
C235        C236   1.396       .  A
C235       Br242   1.922       .  S
C236        C237   1.401       .  A
C236        H241   1.084       .  S
C237        C238   1.410       .  A
C238       Br239   1.919       .  S
C243        C244   1.405       .  A
C243        C248   1.401       .  A
C243        H250   1.084       .  S
C244        C245   1.410       .  A
C245        C246   1.398       .  A
C245       Br252   1.922       .  S
C246        C247   1.406       .  A
C246        H251   1.083       .  S
C247        C248   1.412       .  A
C248       Br249   1.920       .  S
C253        C254   1.404       .  A
C253        C258   1.394       .  A
C253        H260   1.084       .  S
C254        C255   1.412       .  A
C255        C256   1.407       .  A
C255       Br262   1.920       .  S
C256        C257   1.408       .  A
C256        H261   1.083       .  S
C257        C258   1.410       .  A
C258       Br259   1.922       .  S
C263        C264   1.404       .  A
C263        C268   1.400       .  A
C263        H270   1.084       .  S
C264        C265   1.411       .  A
C265        C266   1.395       .  A
C265       Br272   1.922       .  S
C266        C267   1.402       .  A
C266        H271   1.084       .  S
C267        C268   1.410       .  A
C268       Br269   1.919       .  S
C273        C274   1.405       .  A
C273        C278   1.407       .  A
C273        C539   1.477       .  S
C274        C275   1.400       .  A
C274        H279   1.084       .  S
C275        C276   1.403       .  A
C275        C284   1.479       .  S
C276        C277   1.403       .  A
C276        H280   1.084       .  S
C277        C278   1.403       .  A
C277        C320   1.484       .  S
C278        H281   1.084       .  S
C282        C283   1.406       .  A
C282        C287   1.411       .  A
C282        C529   1.485       .  S
C283        C284   1.404       .  A
C283        H288   1.084       .  S
C284        C285   1.402       .  A
C285        C286   1.400       .  A
C285        H289   1.085       .  S
C286        C287   1.404       .  A
C286        C293   1.484       .  S
C287        H290   1.083       .  S
C291        C836   1.411       .  A
C291        C296   1.409       .  A
C291        C519   1.487       .  S
C292        C835   1.411   1_455  A
C292        C293   1.403       .  A
C292        H297   1.083       .  S
C293        C294   1.403       .  A
C294        C839   1.403   1_455  A
C294        H298   1.084       .  S
C295        C838   1.403       .  A
C295        C296   1.401       .  A
C295        C313   1.484       .  S
C296        H299   1.084       .  S
C300        C301   1.409       .  A
C300        C849   1.406       .  A
C300        C509   1.481       .  S
C301        C302   1.404       .  A
C301        H306   1.084       .  S
C302        C847   1.401       .  A
C302        C311   1.482       .  S
C303        C846   1.401   1_455  A
C303        C304   1.400       .  A
C303        H307   1.085       .  S
C304        C305   1.402       .  A
C304        C322   1.479       .  S
C305        C844   1.406   1_455  A
C305        H308   1.084       .  S
C309        C310   1.408       .  A
C309        C314   1.408   1_565  A
C309        C496   1.481       .  S
C310        C311   1.401       .  A
C310        H315   1.083       .  S
C311        C312   1.401       .  A
C312        H588   1.084   1_565  S
H316        C584   1.084   1_455  S
C318        C319   1.408       .  A
C318        C323   1.403       .  A
C318        C489   1.477       .  S
C321        C322   1.403       .  A
C321        H325   1.084   1_565  S
C322        C323   1.400       .  A
C323        H326   1.084       .  S
Fe327       O343   2.068       .  S
Fe327       O333   2.067       .  S
Fe327       O340   2.073       .  S
Fe327       O332   2.061       .  S
Fe327       O338   1.963       .  S
Fe328       O331   2.071       .  S
Fe328       O335   2.062       .  S
Fe328       O339   2.066       .  S
Fe328       O344   2.065       .  S
Fe328       O338   1.956       .  S
Fe329       O347   2.067       .  S
Fe329       O334   2.077       .  S
Fe329       O341   2.073       .  S
Fe329       O330   2.066       .  S
Fe329       O338   1.963       .  S
O330        C337   1.270       .  A
O331        C345   1.271       .  A
O332        C337   1.269       .  A
O333        C336   1.271       .  A
O334        C346   1.271       .  A
O335        C348   1.268       .  A
C336        C526   1.482       .  S
C336        O341   1.270       .  A
C337        C456   1.472       .  S
O339        C342   1.270       .  A
O340        C342   1.271       .  A
C342        C476   1.479       .  S
O343        C348   1.269       .  A
O344        C346   1.268       .  A
C345        C499   1.477       .  S
C345        O347   1.270       .  A
C346        C466   1.483       .  S
C348        C486   1.476       .  S
C349        C350   1.412       .  A
C349        C898   1.406       .  A
C349        C446   1.484   1_556  S
C350        C351   1.406       .  A
C350        H355   1.084   1_556  S
C351        C896   1.404       .  A
C351        C362   1.485       .  S
C352        C895   1.404   1_455  A
C352        C353   1.400       .  A
C352        H356   1.085       .  S
C353        C354   1.400       .  A
C353        C398   1.480       .  S
C354        C893   1.406   1_455  A
C354        H357   1.084       .  S
C358        C359   1.408       .  A
C358        C363   1.413       .  A
C358        C469   1.489       .  S
C359        C360   1.403       .  A
C359        H364   1.084       .  S
C360        C361   1.399       .  A
C360        C369   1.480       .  S
C361        H637   1.085   1_565  S
H365        C633   1.085   1_455  S
C367        C368   1.405   1_554  A
C367        C916   1.405   1_554  A
C367        C439   1.478       .  S
C368        C369   1.402       .  A
C368        H373   1.084   1_556  S
C369        C914   1.405       .  A
C370        C913   1.405   1_455  A
C370        C371   1.403       .  A
C370        H374   1.084       .  S
C371        C372   1.399       .  A
C371        C380   1.481       .  S
C372        C911   1.405   1_456  A
C372        H375   1.083   1_556  S
C376        C377   1.411       .  A
C376        C381   1.407       .  A
C376        C479   1.485       .  S
C378        C387   1.484       .  S
C379        C380   1.399       .  A
C380        C381   1.401       .  A
C381        H384   1.083       .  S
C385        C386   1.410       .  A
C385        C390   1.407       .  A
C385        C426   1.482   1_556  S
C386        C387   1.407       .  A
C386        H391   1.084       .  S
C387        C388   1.403       .  A
C388        C389   1.399       .  A
C388        H392   1.085       .  S
C389        C390   1.402       .  A
C389        C396   1.481       .  S
C390        H393   1.083       .  S
C394        C395   1.406       .  A
C394        C399   1.404       .  A
C394        C459   1.477       .  S
C395        C396   1.400       .  A
C395        H400   1.083       .  S
C396        C397   1.404       .  A
C397        C398   1.404       .  A
C397        H401   1.084       .  S
C398        C399   1.401       .  A
C399        H402   1.084       .  S
Fe403       O419   2.065       .  S
Fe403       O409   2.056       .  S
Fe403       O416   2.072       .  S
Fe403       O408   2.069       .  S
Fe403       O414   1.966       .  S
Fe404       O407   2.060       .  S
Fe404       O411   2.074       .  S
Fe404       O415   2.060       .  S
Fe404       O420   2.067       .  S
Fe404       O414   1.968       .  S
Fe405       O423   2.070       .  S
Fe405       O410   2.072       .  S
Fe405       O417   2.073       .  S
Fe405       O406   2.065       .  S
Fe405       O414   1.969       .  S
O406        C413   1.269       .  A
O407        C421   1.271       .  A
O408        C413   1.271       .  A
O409        C412   1.266       .  A
O410        C422   1.268       .  A
O411        C424   1.268       .  A
C412        C449   1.472       .  S
C412        O417   1.271       .  A
C413        C516   1.478       .  S
O415        C418   1.270       .  A
O416        C418   1.272       .  A
C418        C536   1.473       .  S
O419        C424   1.266       .  A
O420        C422   1.267       .  A
C421        C436   1.475       .  S
C421        O423   1.273       .  A
C422        C506   1.481       .  S
C424        C429   1.479       .  S
C425        C426   1.405       .  A
C425        C430   1.406       .  A
C425        H432   1.083   1_554  S
C426        C427   1.409       .  A
C427        C428   1.397       .  A
C427       Br434   1.921       .  S
C428        C429   1.403       .  A
C428        H433   1.083       .  S
C429        C430   1.411       .  A
C430       Br431   1.918       .  S
C435        C436   1.403       .  A
C435        C440   1.393       .  A
C435        H442   1.083       .  S
C436        C437   1.411       .  A
C437        C438   1.401       .  A
C437       Br444   1.920       .  S
C438        C439   1.405       .  A
C438        H443   1.083   1_554  S
C439        C440   1.411       .  A
C440       Br985   1.923       .  S
Br441       C984   1.923   1_455  S
C445        C446   1.406       .  A
C445        C450   1.397       .  A
C445        H996   1.084       .  S
C446        C447   1.410       .  A
C447        C448   1.402       .  A
C447       Br454   1.919   1_554  S
C448        C449   1.404       .  A
C448        H453   1.083       .  S
C449        C450   1.407       .  A
C450       Br995   1.921       .  S
Br451       C994   1.921   1_455  S
H452        C989   1.084       .  S
C455        C456   1.403       .  A
C455        C460   1.394       .  A
C455        H462   1.084       .  S
C456        C457   1.409       .  A
C457        C458   1.400       .  A
C457       Br464   1.920       .  S
C458        C459   1.405       .  A
C458        H463   1.083       .  S
C459        C460   1.410       .  A
C460       Br461   1.922       .  S
C465        C466   1.405       .  A
C465        C470   1.405       .  A
C465        H472   1.083       .  S
C466        C467   1.413       .  A
C467        C468   1.396       .  A
C467       Br474   1.923       .  S
C468        C469   1.403       .  A
C468        H473   1.084       .  S
C469        C470   1.414       .  A
C470       Br471   1.920       .  S
C475        C476   1.403       .  A
C475        C480   1.397       .  A
C475        H482   1.084       .  S
C476        C477   1.410       .  A
C477        C478   1.403       .  A
C477       Br484   1.919       .  S
C478        C479   1.405       .  A
C478        H483   1.083       .  S
C479        C480   1.414       .  A
C480       Br481   1.923       .  S
C485        C486   1.405       .  A
C485        C490   1.403       .  A
C485        H492   1.083       .  S
C486        C487   1.412       .  A
C487        C488   1.393       .  A
C487       Br494   1.923       .  S
C488        C489   1.400       .  A
C488        H493   1.084       .  S
C489        C490   1.411       .  A
C490       Br491   1.919       .  S
C495        C496   1.406       .  A
C495        C500   1.405       .  A
C495        H502   1.083       .  S
C496        C497   1.409       .  A
C497        C498   1.394       .  A
C497       Br504   1.921       .  S
C498        C499   1.403       .  A
C498        H503   1.084       .  S
C499        C500   1.410       .  A
C500       Br501   1.919       .  S
C505        C506   1.406       .  A
C505        C510   1.404       .  A
C505        H512   1.083       .  S
C506        C507   1.413       .  A
C507        C508   1.396       .  A
C507       Br514   1.922       .  S
C508        C509   1.401       .  A
C508        H513   1.084       .  S
C509        C510   1.410       .  A
C510       Br511   1.919       .  S
C515        C516   1.405       .  A
C515        C520   1.401       .  A
C515        H522   1.084       .  S
C516        C517   1.410       .  A
C517        C518   1.398       .  A
C517       Br524   1.922       .  S
C518        C519   1.406       .  A
C518        H523   1.083       .  S
C519        C520   1.412       .  A
C520       Br521   1.920       .  S
C525        C526   1.404       .  A
C525        C530   1.394       .  A
C525        H532   1.084       .  S
C526        C527   1.412       .  A
C527        C528   1.407       .  A
C527       Br534   1.920       .  S
C528        C529   1.408       .  A
C528        H533   1.083       .  S
C529        C530   1.410       .  A
C530       Br531   1.922       .  S
C535        C536   1.404       .  A
C535        C540   1.400       .  A
C535        H542   1.084       .  S
C536        C537   1.411       .  A
C537        C538   1.395       .  A
C537       Br544   1.922       .  S
C538        C539   1.402       .  A
C538        H543   1.084       .  S
C539        C540   1.410       .  A
C540       Br541   1.919       .  S
C545        C546   1.405       .  A
C545        C550   1.407       .  A
C545        C811   1.477       .  S
C546        C547   1.400       .  A
C546        H551   1.084       .  S
C547        C548   1.403       .  A
C547        C556   1.479       .  S
C548        C549   1.403       .  A
C548        H552   1.084       .  S
C549        C550   1.403       .  A
C549        C592   1.484       .  S
C550        H553   1.084       .  S
C554        C555   1.406       .  A
C554        C559   1.411       .  A
C554        C801   1.485       .  S
C555        C556   1.404       .  A
C555        H560   1.084       .  S
C556        C557   1.402       .  A
C557        C558   1.400       .  A
C557        H561   1.085       .  S
C558        C559   1.404       .  A
C558        C565   1.484       .  S
C559        H562   1.083       .  S
C563        C568   1.409       .  A
C563        C791   1.487       .  S
C564        C565   1.403       .  A
C564        H569   1.083       .  S
C565        C566   1.403       .  A
C566        H570   1.084       .  S
C567        C568   1.401       .  A
C567        C585   1.484       .  S
C568        H571   1.084       .  S
C572        C573   1.409       .  A
C572        C781   1.481       .  S
C573        C574   1.404       .  A
C573        H578   1.084       .  S
C574        C583   1.482       .  S
C575        C576   1.400       .  A
C575        H579   1.085       .  S
C576        C577   1.402       .  A
C576        C594   1.479       .  S
C577        H580   1.084       .  S
C581        C582   1.408       .  A
C581        C586   1.408       .  A
C581        C768   1.481       .  S
C582        C583   1.401       .  A
C582        H587   1.083       .  S
C583        C584   1.401       .  A
C584        C857   1.402       .  A
C585        C856   1.402   1_545  A
C585        C858   1.406       .  A
C586        C857   1.406       .  A
C586        H861   1.084       .  S
H589        C858   1.084       .  S
C590        C591   1.408       .  A
C590        C595   1.403       .  A
C590        C761   1.477       .  S
C591        C864   1.403       .  A
C591        H868   1.084       .  S
C592        C863   1.403   1_545  A
C592        C865   1.403   1_545  A
C593        C864   1.403       .  A
C593        C594   1.403       .  A
C593        H597   1.084       .  S
C594        C595   1.400       .  A
C595        H598   1.084       .  S
H596        C863   1.084   1_545  S
Fe599       O615   2.068       .  S
Fe599       O605   2.067       .  S
Fe599       O612   2.073       .  S
Fe599       O604   2.061       .  S
Fe599       O610   1.963       .  S
Fe600       O603   2.071       .  S
Fe600       O607   2.062       .  S
Fe600       O611   2.066       .  S
Fe600       O616   2.065       .  S
Fe600       O610   1.956       .  S
Fe601       O619   2.067       .  S
Fe601       O606   2.077       .  S
Fe601       O613   2.073       .  S
Fe601       O602   2.066       .  S
Fe601       O610   1.963       .  S
O602        C609   1.270       .  A
O603        C617   1.271       .  A
O604        C609   1.269       .  A
O605        C608   1.271       .  A
O606        C618   1.271       .  A
O607        C620   1.268       .  A
C608        C798   1.482       .  S
C608        O613   1.270       .  A
C609        C728   1.472       .  S
O611        C614   1.270       .  A
O612        C614   1.271       .  A
C614        C748   1.479       .  S
O615        C620   1.269       .  A
O616        C618   1.268       .  A
C617        C771   1.477       .  S
C617        O619   1.270       .  A
C618        C738   1.483       .  S
C620        C758   1.476       .  S
C621        C622   1.412       .  A
C621        C718   1.484   1_556  S
C622        C623   1.406       .  A
C622        H627   1.084   1_556  S
C623        C634   1.485       .  S
C624        C625   1.400       .  A
C624        H628   1.085       .  S
C625        C626   1.400       .  A
C625        C670   1.480       .  S
C626        H629   1.084       .  S
C630        C631   1.408       .  A
C630        C635   1.413       .  A
C630        C741   1.489       .  S
C631        C632   1.403       .  A
C631        H636   1.084       .  S
C632        C633   1.399       .  A
C632        C641   1.480       .  S
C633        C906   1.402       .  A
C634        C905   1.402   1_545  A
C634        C907   1.405   1_545  A
C635        C906   1.405       .  A
C635        H910   1.083       .  S
H638        C907   1.083   1_545  S
C639        C640   1.405   1_554  A
C639        C711   1.478       .  S
C640        C641   1.402       .  A
C640        H645   1.084   1_556  S
C642        C643   1.403       .  A
C642        H646   1.084       .  S
C643        C644   1.399       .  A
C643        C652   1.481       .  S
C644        H647   1.083   1_556  S
C648        C649   1.411       .  A
C648        C653   1.407       .  A
C648        C751   1.485       .  S
C649        C922   1.405       .  A
C649        H926   1.084       .  S
C650        C921   1.405   1_545  A
C650        C923   1.404   1_545  A
C650        C659   1.484       .  S
C651        C922   1.404       .  A
C651        C652   1.399       .  A
C651        H927   1.084       .  S
C652        C653   1.401       .  A
C653        H656   1.083       .  S
H654        C921   1.084   1_545  S
H655        C923   1.084   1_545  S
C657        C658   1.410       .  A
C657        C662   1.407       .  A
C657        C698   1.482   1_556  S
C658        C659   1.407       .  A
C658        H663   1.084       .  S
C659        C660   1.403       .  A
C660        C661   1.399       .  A
C660        H664   1.085       .  S
C661        C662   1.402       .  A
C661        C668   1.481       .  S
C662        H665   1.083       .  S
C666        C667   1.406       .  A
C666        C671   1.404       .  A
C666        C731   1.477       .  S
C667        C668   1.400       .  A
C667        H672   1.083       .  S
C668        C669   1.404       .  A
C669        C670   1.404       .  A
C669        H673   1.084       .  S
C670        C671   1.401       .  A
C671        H674   1.084       .  S
Fe675       O691   2.065       .  S
Fe675       O681   2.056       .  S
Fe675       O688   2.072       .  S
Fe675       O680   2.069       .  S
Fe675       O686   1.966       .  S
Fe676       O679   2.060       .  S
Fe676       O683   2.074       .  S
Fe676       O687   2.060       .  S
Fe676       O692   2.067       .  S
Fe676       O686   1.968       .  S
Fe677       O695   2.070       .  S
Fe677       O682   2.072       .  S
Fe677       O689   2.073       .  S
Fe677       O678   2.065       .  S
Fe677       O686   1.969       .  S
O678        C685   1.269       .  A
O679        C693   1.271       .  A
O680        C685   1.271       .  A
O681        C684   1.266       .  A
O682        C694   1.268       .  A
O683        C696   1.268       .  A
C684        C721   1.472       .  S
C684        O689   1.271       .  A
C685        C788   1.478       .  S
O687        C690   1.270       .  A
O688        C690   1.272       .  A
C690        C808   1.473       .  S
O691        C696   1.266       .  A
O692        C694   1.267       .  A
C693        C708   1.475       .  S
C693        O695   1.273       .  A
C694        C778   1.481       .  S
C696        C701   1.479       .  S
C697        C698   1.405       .  A
C697        C702   1.406       .  A
C697        H704   1.083   1_554  S
C698        C699   1.409       .  A
C699        C700   1.397       .  A
C699       Br706   1.921       .  S
C700        C701   1.403       .  A
C700        H705   1.083       .  S
C701        C702   1.411       .  A
C702       Br703   1.918       .  S
C707        C708   1.403       .  A
C707        C712   1.393       .  A
C707        H714   1.083       .  S
C708        C709   1.411       .  A
C709        C710   1.401       .  A
C709       Br716   1.920       .  S
C710        C711   1.405       .  A
C710        H715   1.083   1_554  S
C711        C712   1.411       .  A
C717        C718   1.406   1_455  A
C717        C722   1.397   1_455  A
C718        C719   1.410       .  A
C719        C720   1.402       .  A
C719       Br726   1.919   1_554  S
C720        C721   1.404       .  A
C720        H725   1.083       .  S
C721        C722   1.407       .  A
C727        C728   1.403       .  A
C727        C732   1.394       .  A
C727        H734   1.084       .  S
C728        C729   1.409       .  A
C729        C730   1.400       .  A
C729       Br736   1.920       .  S
C730        C731   1.405       .  A
C730        H735   1.083       .  S
C731        C732   1.410       .  A
C732       Br733   1.922       .  S
C737        C738   1.405       .  A
C737        C742   1.405       .  A
C737        H744   1.083       .  S
C738        C739   1.413       .  A
C739        C740   1.396       .  A
C739       Br746   1.923       .  S
C740        C741   1.403       .  A
C740        H745   1.084       .  S
C741        C742   1.414       .  A
C742       Br743   1.920       .  S
C747        C748   1.403       .  A
C747        C752   1.397       .  A
C747        H754   1.084       .  S
C748        C749   1.410       .  A
C749        C750   1.403       .  A
C749       Br756   1.919       .  S
C750        C751   1.405       .  A
C750        H755   1.083       .  S
C751        C752   1.414       .  A
C752       Br753   1.923       .  S
C757        C758   1.405       .  A
C757        C762   1.403       .  A
C757        H764   1.083       .  S
C758        C759   1.412       .  A
C759        C760   1.393       .  A
C759       Br766   1.923       .  S
C760        C761   1.400       .  A
C760        H765   1.084       .  S
C761        C762   1.411       .  A
C762       Br763   1.919       .  S
C767        C768   1.406       .  A
C767        C772   1.405       .  A
C767        H774   1.083       .  S
C768        C769   1.409       .  A
C769        C770   1.394       .  A
C769       Br776   1.921       .  S
C770        C771   1.403       .  A
C770        H775   1.084       .  S
C771        C772   1.410       .  A
C772       Br773   1.919       .  S
C777        C778   1.406       .  A
C777        C782   1.404       .  A
C777        H784   1.083       .  S
C778        C779   1.413       .  A
C779        C780   1.396       .  A
C779       Br786   1.922       .  S
C780        C781   1.401       .  A
C780        H785   1.084       .  S
C781        C782   1.410       .  A
C782       Br783   1.919       .  S
C787        C788   1.405       .  A
C787        C792   1.401       .  A
C787        H794   1.084       .  S
C788        C789   1.410       .  A
C789        C790   1.398       .  A
C789       Br796   1.922       .  S
C790        C791   1.406       .  A
C790        H795   1.083       .  S
C791        C792   1.412       .  A
C792       Br793   1.920   1_655  S
C797        C798   1.404       .  A
C797        C802   1.394       .  A
C797        H804   1.084       .  S
C798        C799   1.412       .  A
C799        C800   1.407       .  A
C799       Br806   1.920       .  S
C800        C801   1.408       .  A
C800        H805   1.083       .  S
C801        C802   1.410       .  A
C802       Br803   1.922       .  S
C807        C808   1.404       .  A
C807        C812   1.400       .  A
C807        H814   1.084       .  S
C808        C809   1.411       .  A
C809        C810   1.395       .  A
C809       Br816   1.922       .  S
C810        C811   1.402       .  A
C810        H815   1.084       .  S
C811        C812   1.410       .  A
C812       Br813   1.919       .  S
C817        C818   1.405       .  A
C817        C822   1.407       .  A
C817       C1083   1.477       .  S
C818        C819   1.400       .  A
C818        H823   1.084       .  S
C819        C820   1.403       .  A
C819        C828   1.479       .  S
C820        C821   1.403       .  A
C820        H824   1.084       .  S
C821        C822   1.403       .  A
C821        C864   1.484       .  S
C822        H825   1.084       .  S
C826        C827   1.406       .  A
C826        C831   1.411       .  A
C826       C1073   1.485       .  S
C827        C828   1.404       .  A
C827        H832   1.084       .  S
C828        C829   1.402       .  A
C829        C830   1.400       .  A
C829        H833   1.085       .  S
C830        C831   1.404       .  A
C830        C837   1.484       .  S
C831        H834   1.083       .  S
C835        C840   1.409       .  A
C835       C1063   1.487       .  S
C836        C837   1.403       .  A
C836        H841   1.083       .  S
C837        C838   1.403       .  A
C838        H842   1.084       .  S
C839        C840   1.401       .  A
C839        C857   1.484       .  S
C840        H843   1.084       .  S
C844        C845   1.409       .  A
C844       C1053   1.481       .  S
C845        C846   1.404       .  A
C845        H850   1.084       .  S
C846        C855   1.482       .  S
C847        C848   1.400       .  A
C847        H851   1.085       .  S
C848        C849   1.402       .  A
C848        C866   1.479       .  S
C849        H852   1.084       .  S
C853        C854   1.408       .  A
C853        C858   1.408   1_565  A
C853       C1040   1.481       .  S
C854        C855   1.401       .  A
C854        H859   1.083       .  S
C855        C856   1.401       .  A
C862        C863   1.408       .  A
C862        C867   1.403       .  A
C862       C1033   1.477       .  S
C865        C866   1.403       .  A
C865        H869   1.084   1_565  S
C866        C867   1.400       .  A
C867        H870   1.084       .  S
Fe871       O887   2.068       .  S
Fe871       O877   2.067       .  S
Fe871       O884   2.073       .  S
Fe871       O876   2.061       .  S
Fe871       O882   1.963       .  S
Fe872       O875   2.071       .  S
Fe872       O879   2.062       .  S
Fe872       O883   2.066       .  S
Fe872       O888   2.065       .  S
Fe872       O882   1.956       .  S
Fe873       O891   2.067       .  S
Fe873       O878   2.077       .  S
Fe873       O885   2.073       .  S
Fe873       O874   2.066       .  S
Fe873       O882   1.963       .  S
O874        C881   1.270       .  A
O875        C889   1.271       .  A
O876        C881   1.269       .  A
O877        C880   1.271       .  A
O878        C890   1.271       .  A
O879        C892   1.268       .  A
C880       C1070   1.482       .  S
C880        O885   1.270       .  A
C881       C1000   1.472       .  S
O883        C886   1.270       .  A
O884        C886   1.271       .  A
C886       C1020   1.479       .  S
O887        C892   1.269       .  A
O888        C890   1.268       .  A
C889       C1043   1.477       .  S
C889        O891   1.270       .  A
C890       C1010   1.483       .  S
C892       C1030   1.476       .  S
C893        C894   1.412       .  A
C893        C990   1.484   1_556  S
C894        C895   1.406       .  A
C894        H899   1.084   1_556  S
C895        C906   1.485       .  S
C896        C897   1.400       .  A
C896        H900   1.085       .  S
C897        C898   1.400       .  A
C897        C942   1.480       .  S
C898        H901   1.084       .  S
C902        C903   1.408       .  A
C902        C907   1.413       .  A
C902       C1013   1.489       .  S
C903        C904   1.403       .  A
C903        H908   1.084       .  S
C904        C905   1.399       .  A
C904        C913   1.480       .  S
C911        C912   1.405   1_554  A
C911        C983   1.478       .  S
C912        C913   1.402       .  A
C912        H917   1.084   1_556  S
C914        C915   1.403       .  A
C914        H918   1.084       .  S
C915        C916   1.399       .  A
C915        C924   1.481       .  S
C916        H919   1.083   1_556  S
C920        C921   1.411       .  A
C920        C925   1.407       .  A
C920       C1023   1.485       .  S
C922        C931   1.484       .  S
C923        C924   1.399       .  A
C924        C925   1.401       .  A
C925        H928   1.083       .  S
C929        C930   1.410       .  A
C929        C934   1.407       .  A
C929        C970   1.482   1_556  S
C930        C931   1.407       .  A
C930        H935   1.084       .  S
C931        C932   1.403       .  A
C932        C933   1.399       .  A
C932        H936   1.085       .  S
C933        C934   1.402       .  A
C933        C940   1.481       .  S
C934        H937   1.083       .  S
C938        C939   1.406       .  A
C938        C943   1.404       .  A
C938       C1003   1.477       .  S
C939        C940   1.400       .  A
C939        H944   1.083       .  S
C940        C941   1.404       .  A
C941        C942   1.404       .  A
C941        H945   1.084       .  S
C942        C943   1.401       .  A
C943        H946   1.084       .  S
Fe947       O963   2.065       .  S
Fe947       O953   2.056       .  S
Fe947       O960   2.072       .  S
Fe947       O952   2.069       .  S
Fe947       O958   1.966       .  S
Fe948       O951   2.060       .  S
Fe948       O955   2.074       .  S
Fe948       O959   2.060       .  S
Fe948       O964   2.067       .  S
Fe948       O958   1.968       .  S
Fe949       O967   2.070       .  S
Fe949       O954   2.072       .  S
Fe949       O961   2.073       .  S
Fe949       O950   2.065       .  S
Fe949       O958   1.969       .  S
O950        C957   1.269       .  A
O951        C965   1.271       .  A
O952        C957   1.271       .  A
O953        C956   1.266       .  A
O954        C966   1.268       .  A
O955        C968   1.268       .  A
C956        C993   1.472       .  S
C956        O961   1.271       .  A
C957       C1060   1.478       .  S
O959        C962   1.270       .  A
O960        C962   1.272       .  A
C962       C1080   1.473       .  S
O963        C968   1.266       .  A
O964        C966   1.267       .  A
C965        C980   1.475       .  S
C965        O967   1.273       .  A
C966       C1050   1.481       .  S
C968        C973   1.479       .  S
C969        C970   1.405       .  A
C969        C974   1.406       .  A
C969        H976   1.083   1_554  S
C970        C971   1.409       .  A
C971        C972   1.397       .  A
C971       Br978   1.921       .  S
C972        C973   1.403       .  A
C972        H977   1.083       .  S
C973        C974   1.411       .  A
C974       Br975   1.918       .  S
C979        C980   1.403       .  A
C979        C984   1.393       .  A
C979        H986   1.083       .  S
C980        C981   1.411       .  A
C981        C982   1.401       .  A
C981       Br988   1.920       .  S
C982        C983   1.405       .  A
C982        H987   1.083   1_554  S
C983        C984   1.411       .  A
C989        C990   1.406   1_455  A
C989        C994   1.397   1_455  A
C990        C991   1.410       .  A
C991        C992   1.402       .  A
C991       Br998   1.919   1_554  S
C992        C993   1.404       .  A
C992        H997   1.083       .  S
C993        C994   1.407       .  A
C999       C1000   1.403       .  A
C999       C1004   1.394       .  A
C999       H1006   1.084       .  S
C1000      C1001   1.409       .  A
C1001      C1002   1.400       .  A
C1001     Br1008   1.920       .  S
C1002      C1003   1.405       .  A
C1002      H1007   1.083       .  S
C1003      C1004   1.410       .  A
C1004     Br1005   1.922       .  S
C1009      C1010   1.405       .  A
C1009      C1014   1.405       .  A
C1009      H1016   1.083       .  S
C1010      C1011   1.413       .  A
C1011      C1012   1.396       .  A
C1011     Br1018   1.923       .  S
C1012      C1013   1.403       .  A
C1012      H1017   1.084       .  S
C1013      C1014   1.414       .  A
C1014     Br1015   1.920       .  S
C1019      C1020   1.403       .  A
C1019      C1024   1.397       .  A
C1019      H1026   1.084       .  S
C1020      C1021   1.410       .  A
C1021      C1022   1.403       .  A
C1021     Br1028   1.919       .  S
C1022      C1023   1.405       .  A
C1022      H1027   1.083       .  S
C1023      C1024   1.414       .  A
C1024     Br1025   1.923       .  S
C1029      C1030   1.405       .  A
C1029      C1034   1.403       .  A
C1029      H1036   1.083       .  S
C1030      C1031   1.412       .  A
C1031      C1032   1.393       .  A
C1031     Br1038   1.923       .  S
C1032      C1033   1.400       .  A
C1032      H1037   1.084       .  S
C1033      C1034   1.411       .  A
C1034     Br1035   1.919       .  S
C1039      C1040   1.406       .  A
C1039      C1044   1.405       .  A
C1039      H1046   1.083       .  S
C1040      C1041   1.409       .  A
C1041      C1042   1.394       .  A
C1041     Br1048   1.921       .  S
C1042      C1043   1.403       .  A
C1042      H1047   1.084       .  S
C1043      C1044   1.410       .  A
C1044     Br1045   1.919       .  S
C1049      C1050   1.406       .  A
C1049      C1054   1.404       .  A
C1049      H1056   1.083       .  S
C1050      C1051   1.413       .  A
C1051      C1052   1.396       .  A
C1051     Br1058   1.922       .  S
C1052      C1053   1.401       .  A
C1052      H1057   1.084       .  S
C1053      C1054   1.410       .  A
C1054     Br1055   1.919       .  S
C1059      C1060   1.405       .  A
C1059      C1064   1.401       .  A
C1059      H1066   1.084       .  S
C1060      C1061   1.410       .  A
C1061      C1062   1.398       .  A
C1061     Br1068   1.922       .  S
C1062      C1063   1.406       .  A
C1062      H1067   1.083       .  S
C1063      C1064   1.412       .  A
C1064     Br1065   1.920   1_655  S
C1069      C1070   1.404       .  A
C1069      C1074   1.394       .  A
C1069      H1076   1.084       .  S
C1070      C1071   1.412       .  A
C1071      C1072   1.407       .  A
C1071     Br1078   1.920       .  S
C1072      C1073   1.408       .  A
C1072      H1077   1.083       .  S
C1073      C1074   1.410       .  A
C1074     Br1075   1.922       .  S
C1079      C1080   1.404       .  A
C1079      C1084   1.400       .  A
C1079      H1086   1.084       .  S
C1080      C1081   1.411       .  A
C1081      C1082   1.395       .  A
C1081     Br1088   1.922       .  S
C1082      C1083   1.402       .  A
C1082      H1087   1.084       .  S
C1083      C1084   1.410       .  A
C1084     Br1085   1.919       .  S
