geometry optimzed in LAMMPS
_audit_creation_date              2020-11-30 
_audit_creation_method            'lammps2cif' 
_symmetry_space_group_name_H-M    'P1' 
_symmetry_Int_Tables_number       1 
_symmetry_cell_setting            triclinic 
loop_ 
_symmetry_equiv_pos_as_xyz 
  x,y,z 
_cell_length_a                    24.89724687 
_cell_length_b                    25.158543188828112 
_cell_length_c                    25.277500193781606 
_cell_angle_alpha                 89.00173576894075 
_cell_angle_beta                  89.64167678659648 
_cell_angle_gamma                 89.88580567033729 
loop_ 
_atom_site_label 
_atom_site_type_symbol 
_atom_site_fract_x 
_atom_site_fract_y 
_atom_site_fract_z 
_atom_site_charge 
O1          O  0.55913312  0.18588223  0.27768664    -0.79800
O2          O  0.44896688  0.02494065  0.14797713    -0.64400
O3          O  0.48529019  0.15943509  0.20220341    -1.11000
C4          C  0.34506881  0.12675845  0.31798571     1.07100
O5          O  0.36569037  0.05475514  0.13933902    -0.77700
O6          O  0.34767149  0.15688897  0.17533105    -0.65200
Ni7        Ni  0.55713620  0.18199106  0.20214436     1.34900
C8          C  0.35958310  0.19938874  0.19926885     0.85900
O9          O  0.51953037  0.09946623  0.11525031    -0.78200
O10         O  0.55857082  0.17880366  0.12641027    -0.88500
C11         C  0.40177207  0.01985159  0.13031597     0.85400
O12         O  0.59106414  0.11376436  0.20682566    -0.66700
O13         O  0.32445489  0.11313857  0.27393575    -0.86000
C14         C  0.57315753  0.06781905  0.21892366     0.86300
C15         C  0.54824977  0.13839067  0.09856951     1.07800
H16         H  0.42690446  0.05627300  0.25164948     0.39600
O17         O  0.41995254  0.08756288  0.23001616    -1.08600
O18         O  0.39140041  0.19943896  0.23844430    -0.65300
Ni19       Ni  0.44362835  0.14904861  0.26573838     1.26300
O20         O  0.52353165  0.05620307  0.21593531    -0.65500
O21         O  0.39527900  0.13615114  0.32404704    -0.77800
C22         C  0.52703046  0.21132891  0.30722420     0.85700
O23         O  0.47610269  0.20736088  0.30274866    -0.65000
Ni24       Ni  0.34799206  0.08624723  0.20693905     1.27400
Ni25       Ni  0.46991354  0.09236009  0.17353444     1.26100
H26         H  0.46711932  0.18525238  0.17996402     0.40200
O27         O  0.21572662  0.25526657  0.56745657    -0.79800
O28         O  0.03876003  0.11930926  0.48134931    -0.64400
O29         O  0.17874322  0.16847371  0.51087725    -1.11000
C30         C  0.15355342  0.27624064  0.36028261     1.07100
O31         O  0.06180526  0.10791953  0.39759189    -0.77700
O32         O  0.16301072  0.13280712  0.37003928    -0.65200
Ni33       Ni  0.20150473  0.18049189  0.58117972     1.34900
C34         C  0.21001262  0.14680844  0.38271178     0.85900
O35         O  0.11280816  0.08945960  0.55221191    -0.78200
O36         O  0.18731852  0.10701899  0.59938487    -0.88500
C37         C  0.02859105  0.10233956  0.43561458     0.85400
O38         O  0.13408895  0.19882179  0.61196978    -0.66700
O39         O  0.12962755  0.23488096  0.34383819    -0.86000
C40         C  0.08682878  0.20453043  0.59418386     0.86300
C41         C  0.14759056  0.07749642  0.58733769     1.07800
H42         H  0.08001522  0.22279555  0.45159094     0.39600
O43         O  0.10754197  0.19675022  0.44416857    -1.08600
O44         O  0.21916812  0.18512809  0.41316801    -0.65300
Ni45       Ni  0.17567800  0.22576881  0.46058563     1.26300
O46         O  0.07376068  0.19155357  0.54747228    -0.65500
O47         O  0.17040604  0.28095087  0.40757085    -0.77800
C48         C  0.23803058  0.27771637  0.52735705     0.85700
O49         O  0.24111195  0.25500143  0.48344889    -0.65000
Ni50       Ni  0.09734850  0.17192044  0.37430919     1.27400
Ni51       Ni  0.10861011  0.14348649  0.49859793     1.26100
H52         H  0.20293086  0.14165959  0.49765644     0.40200
O53         O  0.31088243  0.49403743  0.05240247    -0.79800
O54         O  0.19280108  0.37979872  0.22818813    -0.64400
O55         O  0.23429754  0.42294285  0.08981796    -1.11000
C56         C  0.09588791  0.54754712  0.10702649     1.07100
O57         O  0.10839319  0.37425464  0.20110613    -0.77700
O58         O  0.08923846  0.40482718  0.09757636    -0.65200
Ni59       Ni  0.30657001  0.41893244  0.06816298     1.34900
C60         C  0.10551977  0.41981017  0.05188836     0.85900
O61         O  0.26459387  0.33946765  0.16077543    -0.78200
O62         O  0.30703304  0.34317807  0.08235863    -0.88500
C63         C  0.14534293  0.36263285  0.23423981     0.85400
O64         O  0.33856015  0.43121248  0.13543151    -0.66700
O65         O  0.07373184  0.50721814  0.12964596    -0.86000
C66         C  0.31994901  0.44617305  0.17976323     0.86300
C67         C  0.29473829  0.31887851  0.12547560     1.07800
H68         H  0.17673250  0.48323026  0.18433017     0.39600
O69         O  0.16813546  0.45879872  0.15654589    -1.08600
O70         O  0.14193235  0.45490104  0.04479136    -0.65300
Ni71       Ni  0.19335515  0.48809482  0.09105406     1.26300
O72         O  0.27023446  0.44357145  0.19154011    -0.65500
O73         O  0.14592592  0.54901461  0.09446816    -0.77800
C74         C  0.27913280  0.52490148  0.02704599     0.85700
O75         O  0.22808077  0.51970078  0.02954354    -0.65000
Ni76       Ni  0.09454334  0.44110179  0.16346616     1.27400
Ni77       Ni  0.21628759  0.39995367  0.15930814     1.26100
H78         H  0.21624594  0.39865408  0.06675742     0.40200
O79         O  0.06776643  0.28940470  0.74211648    -0.79800
O80         O  0.95146620  0.46815951  0.86220565    -0.64400
O81         O  0.00015480  0.33072369  0.82099243    -1.11000
C82         C  0.84906776  0.33646095  0.71025303     1.07100
O83         O  0.86872061  0.43810829  0.87424282    -0.77700
O84         O  0.85326324  0.33284335  0.85273102    -0.65200
Ni85       Ni  0.07563316  0.31789092  0.81178395     1.34900
C86         C  0.86855726  0.28689033  0.83880167     0.85900
O87         O  0.02957724  0.40562761  0.89830987    -0.78200
O88         O  0.09232625  0.34428230  0.88079127    -0.88500
C89         C  0.90483030  0.47300900  0.88175170     0.85400
O90         O  0.09464503  0.38449923  0.77988996    -0.66700
O91         O  0.82886007  0.36013924  0.75008792    -0.86000
C92         C  0.06934344  0.42781548  0.77258333     0.86300
C93         C  0.07252154  0.38046971  0.90958307     1.07800
H94         H  0.93092977  0.41980251  0.76164862     0.39600
O95         O  0.92552921  0.39268966  0.78869968    -1.08600
O96         O  0.90411527  0.27979969  0.80308244    -0.65300
Ni97       Ni  0.95116028  0.32668015  0.76210684     1.26300
O98         O  0.02336770  0.43719247  0.79253669    -0.65500
O99         O  0.89909957  0.32554418  0.70604406    -0.77800
C100        C  0.03221765  0.26029086  0.72147183     0.85700
O101        O  0.98270682  0.26356896  0.73360364    -0.65000
Ni102      Ni  0.85289879  0.39741188  0.81154182     1.27400
Ni103      Ni  0.97777618  0.39988382  0.84263156     1.26100
H104        H  0.98838858  0.30587448  0.84821021     0.40200
O105        O  0.73069021  0.04870144  0.29343636    -0.79800
O106        O  0.85091904  0.94071758  0.47113463    -0.64400
O107        O  0.80814660  0.98002183  0.33256086    -1.11000
C108        C  0.69173171  0.83570233  0.35289410     1.07100
O109        O  0.86354211  0.85897330  0.44258952    -0.77700
O110        O  0.83426092  0.83428405  0.34331986    -0.65200
Ni111      Ni  0.80577539  0.05163902  0.31019493     1.34900
C112        C  0.82198590  0.85126870  0.29745968     0.85900
O113        O  0.88767970  0.01354384  0.40264535    -0.78200
O114        O  0.88090998  0.05853871  0.32537875    -0.88500
C115        C  0.87178317  0.89500724  0.47615470     0.85400
O116        O  0.78888727  0.08250716  0.37687024    -0.66700
O117        O  0.73211088  0.81688230  0.37783873    -0.86000
C118        C  0.77778525  0.06372330  0.42267586     0.86300
C119        C  0.90586035  0.04598831  0.36773336     1.07800
H120        H  0.74794872  0.91998431  0.42701636     0.39600
O121        O  0.77430973  0.91250189  0.39991533    -1.08600
O122        O  0.78620020  0.88652541  0.28898548    -0.65300
Ni123      Ni  0.74632989  0.93468551  0.33323860     1.26300
O124        O  0.78313687  0.01462194  0.43486655    -0.65500
O125        O  0.68837224  0.88401572  0.33635968    -0.77800
C126        C  0.70623976  0.01448638  0.26600452     0.85700
O127        O  0.71634187  0.96492200  0.26978714    -0.65000
Ni128      Ni  0.79694208  0.84099828  0.40900959     1.27400
Ni129      Ni  0.83026447  0.96323836  0.40222989     1.26100
H130        H  0.83497343  0.96449915  0.30976965     0.40200
O131        O  0.98635880  0.96128266  0.80260729    -0.79800
O132        O  0.11410328  0.77978973  0.71815777    -0.64400
O133        O  0.07018844  0.92054724  0.74195211    -1.11000
C134        C  0.95659622  0.89909117  0.60040678     1.07100
O135        O  0.11507499  0.78902715  0.63025265    -0.77700
O136        O  0.10436872  0.89383376  0.60537097    -0.65200
Ni137      Ni  0.06226682  0.94667796  0.81116187     1.34900
C138        C  0.09291918  0.94171257  0.61550287     0.85900
O139        O  0.14905092  0.85456989  0.78215179    -0.78200
O140        O  0.13732800  0.93285078  0.82295372    -0.88500
C141        C  0.12591652  0.76326417  0.67260026     0.90200
O142        O  0.04544580  0.88143715  0.84751666    -0.66700
O143        O  0.99841451  0.87639624  0.58211001    -0.86000
C144        C  0.03646208  0.83441567  0.83234042     0.86300
C145        C  0.16457812  0.89100703  0.81303104     1.07800
H146        H  0.00909032  0.82228962  0.69230974     0.39600
O147        O  0.03589412  0.84811041  0.68158223    -1.08600
O148        O  0.05263106  0.95503185  0.64363064    -0.65300
Ni149      Ni  0.01024044  0.91752241  0.69634161     1.26300
O150        O  0.04512799  0.81974190  0.78519037    -0.65500
O151        O  0.95181827  0.91263102  0.64837779    -0.77800
C152        C  0.96281196  0.98359399  0.76335612     0.85700
O153        O  0.98393280  0.98444858  0.71780985    -0.65000
Ni154      Ni  0.05661137  0.83489140  0.61042057     1.27400
Ni155      Ni  0.09247578  0.85007236  0.73197907     1.26100
H156        H  0.09746542  0.94284988  0.72582118     0.40200
O157        O  0.46406786  0.67636659  0.02713608    -0.79800
O158        O  0.29413609  0.77772055  0.89243290    -0.64400
O159        O  0.43123644  0.74239845  0.94501329    -1.11000
C160        C  0.40352680  0.88935275  0.05372888     1.07100
O161        O  0.32026182  0.86140457  0.88139674    -0.77700
O162        O  0.42081288  0.88867890  0.91393832    -0.65200
Ni163      Ni  0.45301512  0.67088839  0.95212050     1.34900
C164        C  0.46692971  0.87417971  0.92996479     0.85900
O165        O  0.36589751  0.70543685  0.86325311    -0.78200
O166        O  0.44312117  0.66127845  0.87732105    -0.88500
C167        C  0.28659137  0.82426648  0.87418584     0.85400
O168        O  0.38449484  0.63899086  0.96571203    -0.66700
O169        O  0.38061319  0.90739538  0.01212069    -0.86000
C170        C  0.33752882  0.65720991  0.97369546     0.86300
C171        C  0.40217398  0.67267131  0.84911243     1.07800
H172        H  0.33171799  0.80169689  0.99610428     0.39600
O173        O  0.36067948  0.80956637  0.97155766    -1.08600
O174        O  0.47375186  0.83860843  0.96594103    -0.65300
Ni175      Ni  0.42647764  0.78944124  0.00393091     1.26300
O176        O  0.32554980  0.70590798  0.96440433    -0.65500
O177        O  0.41939657  0.84107627  0.05921999    -0.77800
C178        C  0.49029885  0.71151016  0.05173564     0.85700
O179        O  0.48850729  0.76063656  0.03870922    -0.65000
Ni180      Ni  0.35211197  0.88104086  0.94754098     1.27400
Ni181      Ni  0.36224553  0.75715458  0.91803813     1.26100
H182        H  0.45624043  0.75764714  0.91966597     0.40200
O183        O  0.18072463  0.45079823  0.56729174    -0.79800
O184        O  0.29009405  0.59427935  0.71992260    -0.64400
O185        O  0.24578604  0.53812881  0.58959496    -1.11000
C186        C  0.39752517  0.43396450  0.60071108     1.07100
O187        O  0.37667486  0.59927421  0.69733432    -0.77700
O188        O  0.38110413  0.57990171  0.59015369    -0.65200
Ni189      Ni  0.17179565  0.52616230  0.57618605     1.34900
C190        C  0.36853269  0.56102741  0.54554051     0.85900
O191        O  0.21114846  0.61961764  0.65399126    -0.78200
O192        O  0.15883049  0.60052874  0.58450433    -0.88500
C193        C  0.33758317  0.60999733  0.72820813     0.85400
O194        O  0.14745113  0.51204867  0.64720613    -0.66700
O195        O  0.41673645  0.47882101  0.61379025    -0.86000
C196        C  0.17335950  0.50381472  0.68969980     0.86300
C197        C  0.17430691  0.63125001  0.62094764     1.07800
H198        H  0.31621571  0.48927233  0.68411656     0.39600
O199        O  0.32045497  0.51358812  0.65436767    -1.08600
O200        O  0.34061458  0.51886136  0.54135093    -0.65300
Ni201      Ni  0.29531099  0.48063723  0.59210437     1.26300
O202        O  0.22167202  0.51850424  0.69574002    -0.65500
O203        O  0.34748869  0.42530462  0.59628904    -0.77800
C204        C  0.21814121  0.42516367  0.54455212     0.85700
O205        O  0.26334401  0.44617021  0.53451707    -0.65000
Ni206      Ni  0.39201454  0.53872357  0.65344476     1.27400
Ni207      Ni  0.26602797  0.56665474  0.65501794     1.26100
H208        H  0.25721541  0.56327877  0.56253344     0.40200
O209        O  0.47922216  0.52747919  0.19840623    -0.79800
O210        O  0.59732285  0.70027517  0.30770531    -0.64400
O211        O  0.55366949  0.56206504  0.27031050    -1.11000
C212        C  0.43500348  0.57955500  0.41106151     1.07100
O213        O  0.60989712  0.66705672  0.38840823    -0.77700
O214        O  0.58132780  0.56249006  0.40700432    -0.65200
Ni215      Ni  0.55488505  0.54115008  0.19930584     1.34900
C216        C  0.56017117  0.51848635  0.39454292     0.85900
O217        O  0.63616594  0.63250788  0.23562658    -0.78200
O218        O  0.63090753  0.55353620  0.19619053    -0.88500
C219        C  0.61521902  0.70463862  0.35423702     0.85400
O220        O  0.54225596  0.60929734  0.16690824    -0.66700
O221        O  0.47847536  0.59720931  0.43112601    -0.86000
C222        C  0.52790471  0.65401865  0.18501379     0.86300
C223        C  0.65576558  0.59640215  0.20618287     1.07800
H224        H  0.49564160  0.65794404  0.33019018     0.39600
O225        O  0.52032442  0.62878882  0.33623162    -1.08600
O226        O  0.52109956  0.51592532  0.36275328    -0.65300
Ni227      Ni  0.48912974  0.56489922  0.31266315     1.26300
O228        O  0.53049930  0.66479509  0.23400950    -0.65500
O229        O  0.42960985  0.57032520  0.36154081    -0.77800
C230        C  0.45108954  0.50052058  0.23128888     0.85700
O231        O  0.45657541  0.50414157  0.28116749    -0.65000
Ni232      Ni  0.54417135  0.63014786  0.40699929     1.27400
Ni233      Ni  0.57714067  0.63145952  0.28585033     1.26100
H234        H  0.57860325  0.53820784  0.28771494     0.40200
O235        O  0.71405101  0.22451564  0.44674073    -0.79800
O236        O  0.53446303  0.33884922  0.55608431    -0.64400
O237        O  0.67571646  0.29865300  0.51734216    -1.11000
C238        C  0.66045699  0.18139284  0.66121999     1.07100
O239        O  0.56369643  0.34992665  0.63770155    -0.77700
O240        O  0.66781681  0.32552208  0.65486857    -0.65200
Ni241      Ni  0.69690029  0.29921783  0.44564136     1.34900
C242        C  0.71463519  0.30996013  0.64236075     0.85900
O243        O  0.60277936  0.37837800  0.48343026    -0.78200
O244        O  0.68150966  0.37447650  0.44011829    -0.88500
C245        C  0.52855605  0.35721311  0.60205677     0.85400
O246        O  0.62861624  0.28303577  0.41519004    -0.66700
O247        O  0.63840981  0.22285928  0.68017709    -0.86000
C248        C  0.58365607  0.26830411  0.43467532     0.86300
C249        C  0.63820112  0.39867468  0.45240599     1.07800
H250        H  0.58067684  0.23796289  0.57830796     0.39600
O251        O  0.60853709  0.26369967  0.58474730    -1.08600
O252        O  0.72284864  0.27192443  0.61064166    -0.65300
Ni253      Ni  0.67562962  0.23570034  0.56186941     1.26300
O254        O  0.57214647  0.27315630  0.48350870    -0.65500
O255        O  0.67277028  0.17694372  0.61211582    -0.77800
C256        C  0.73996792  0.19643704  0.48040902     0.85700
O257        O  0.73830610  0.20515334  0.52994355    -0.65000
Ni258      Ni  0.60254931  0.28585490  0.65547661     1.27400
Ni259      Ni  0.60476515  0.32000224  0.53389958     1.26100
H260        H  0.69887278  0.32451427  0.53330732     0.40200
O261        O  0.78953287  0.93216769  0.81653274    -0.79800
O262        O  0.64065747  0.03572711  0.97504874    -0.64400
O263        O  0.70024758  0.99297078  0.84499660    -1.11000
C264        C  0.80045938  0.15068513  0.85768531     1.07100
O265        O  0.62605998  0.11823383  0.94540243    -0.77700
O266        O  0.65620388  0.13245462  0.84139064    -0.65200
Ni267      Ni  0.71509185  0.91936467  0.83340743     1.34900
C268        C  0.67605643  0.11766963  0.79753612     0.85900
O269        O  0.61798486  0.95546959  0.91358272    -0.78200
O270        O  0.64205431  0.89912539  0.84992419    -0.88500
C271        C  0.61817332  0.08054021  0.97900965     0.85400
O272        O  0.73663704  0.89951083  0.90333743    -0.66700
O273        O  0.75537775  0.16804149  0.87482460    -0.86000
C274        C  0.74179835  0.92570642  0.94544255     0.86300
C275        C  0.60991913  0.91429347  0.88612973     1.07800
H276        H  0.74457435  0.06600616  0.93715661     0.39600
O277        O  0.72013378  0.06902242  0.90770238    -1.08600
O278        O  0.71747703  0.08818857  0.79447205    -0.65300
Ni279      Ni  0.75641160  0.04578987  0.84611785     1.26300
O280        O  0.72113265  0.97148820  0.95180785    -0.65500
O281        O  0.80943587  0.10143218  0.84932099    -0.77800
C282        C  0.81469365  0.97030880  0.79393591     0.85700
O283        O  0.79461474  0.01640460  0.78850706    -0.65000
Ni284      Ni  0.69142138  0.13892358  0.90806404     1.27400
Ni285      Ni  0.66971532  0.01221485  0.91076563     1.26100
H286        H  0.67462502  0.00315862  0.81811993     0.40200
O287        O  0.95776111  0.81805154  0.98606456    -0.79800
O288        O  0.78429464  0.70897706  0.11888901    -0.64400
O289        O  0.92152176  0.75266886  0.06894454    -1.11000
C290        C  0.90791339  0.60176899  0.96241463     1.07100
O291        O  0.81070609  0.62552629  0.13077492    -0.77700
O292        O  0.91703108  0.60967503  0.10535233    -0.65200
Ni293      Ni  0.93543371  0.82702655  0.05824890     1.34900
C294        C  0.96343967  0.62330996  0.08879142     0.85900
O295        O  0.84944220  0.78466480  0.14857376    -0.78200
O296        O  0.91473086  0.84329621  0.12977276    -0.88500
C297        C  0.77702715  0.66293746  0.13836629     0.85400
O298        O  0.86646464  0.84939656  0.03326175    -0.66700
O299        O  0.88654957  0.58274466  0.00472790    -0.86000
C300        C  0.82278406  0.82448155  0.02684937     0.86300
C301        C  0.87735493  0.82517586  0.15954683     1.07800
H302        H  0.82819621  0.68539692  0.01641479     0.39600
O303        O  0.85642965  0.67977609  0.04198392    -1.08600
O304        O  0.97055947  0.65649281  0.05066671    -0.65300
Ni305      Ni  0.92249831  0.70342331  0.01108385     1.26300
O306        O  0.81436735  0.77793671  0.04543636    -0.65500
O307        O  0.92043207  0.65088943  0.95632049    -0.77800
C308        C  0.98731462  0.78298086  0.96489513     0.85700
O309        O  0.98519685  0.73399137  0.97827305    -0.65000
Ni310      Ni  0.85098117  0.60842190  0.06712052     1.27400
Ni311      Ni  0.85248017  0.73254227  0.09469844     1.26100
H312        H  0.94722389  0.74063602  0.09502084     0.40200
C313        C  0.78080054  0.84935571  0.99371976    -0.15300
C314        C  0.77558668  0.90238878  0.98769814    -0.30500
H315        H  0.75479754  0.82312868  0.97176740     0.13700
H316        H  0.79867023  0.92896583  0.01218174     0.14300
C317        C  0.65144072  0.13971776  0.74894155    -0.15300
C318        C  0.67489107  0.13930105  0.70048251    -0.30500
H319        H  0.61639991  0.16477793  0.75513962     0.13700
H320        H  0.70929966  0.11395548  0.69269300     0.14300
C321        C  0.57659367  0.46791518  0.42029375    -0.15300
C322        C  0.62748555  0.45212990  0.42874373    -0.30500
H323        H  0.54421787  0.44020851  0.42936263     0.13700
H324        H  0.66076624  0.47687753  0.41536885     0.14300
C325        C  0.70868938  0.60477859  0.18062447    -0.15300
C326        C  0.72867477  0.65369069  0.17140727    -0.30500
H327        H  0.72909883  0.57042554  0.16441898     0.13700
H328        H  0.70628531  0.68828650  0.18439904     0.14300
C329        C  0.43641472  0.39175344  0.58933147    -0.15300
C330        C  0.48389092  0.39261323  0.61404899    -0.30500
H331        H  0.42697881  0.36122899  0.56098304     0.13700
H332        H  0.49059749  0.42092134  0.64536934     0.14300
C333        C  0.39228715  0.58680771  0.49805673    -0.15300
C334        C  0.39152307  0.56581399  0.44921256    -0.30500
H335        H  0.41878328  0.62014938  0.50543915     0.13700
H336        H  0.36453123  0.53338715  0.44021645     0.14300
C337        C  0.52360342  0.69232873  0.09573596    -0.15300
C338        C  0.50692315  0.69376496  0.14648574    -0.30500
H339        H  0.55564857  0.66507346  0.08503979     0.13700
H340        H  0.47430042  0.71989445  0.15813373     0.14300
C341        C  0.51398434  0.90380715  0.90878715    -0.15300
C342        C  0.56196303  0.88140565  0.89875123    -0.30500
H343        H  0.50909458  0.94634489  0.90217356     0.13700
H344        H  0.56639048  0.83846066  0.90093837     0.14300
C345        C  0.34706944  0.64240880  0.77513934    -0.15300
C346        C  0.39548362  0.64540107  0.79835664    -0.30500
H347        H  0.31225144  0.66062691  0.79366294     0.13700
H348        H  0.42961137  0.62413567  0.78198357     0.14300
C349        C  0.01407319  0.79610086  0.87168860    -0.15300
C350        C  0.02413419  0.80233225  0.92341269    -0.30500
H351        H  0.98576389  0.76619843  0.85892187     0.13700
H352        H  0.05181041  0.83328860  0.93512733     0.14300
C353        C  0.87049848  0.96012652  0.77844661    -0.15300
C354        C  0.90636712  0.99876282  0.76877228    -0.30500
H355        H  0.88425190  0.91904280  0.78059937     0.13700
H356        H  0.89464306  0.04030936  0.76595387     0.14300
C357        C  0.15373749  0.71252712  0.66840763    -0.15300
C358        C  0.14814378  0.68296456  0.62516344    -0.30500
H359        H  0.17634510  0.69787180  0.70231673     0.13700
H360        H  0.12249905  0.69634098  0.59289101     0.14300
C361        C  0.23865641  0.83464823  0.84270824    -0.15300
C362        C  0.21618716  0.88319130  0.83970652    -0.30500
H363        H  0.21882209  0.80064423  0.82551890     0.13700
H364        H  0.23398612  0.91641070  0.86015931     0.14300
C365        C  0.64877219  0.79726236  0.34152398    -0.15300
C366        C  0.64785472  0.75049768  0.36842732    -0.30500
H367        H  0.62105133  0.80520607  0.30931793     0.13700
H368        H  0.67373920  0.74453967  0.40251238     0.14300
C369        C  0.86366685  0.85322637  0.20853368    -0.15300
C370        C  0.84774730  0.82588297  0.25191176    -0.30500
H371        H  0.86384531  0.89642032  0.20822072     0.13700
H372        H  0.85172904  0.78284110  0.25326755     0.14300
C373        C  0.91044128  0.88367832  0.51799418    -0.15300
C374        C  0.91310653  0.91095496  0.56301678    -0.30500
H375        H  0.93780779  0.85067759  0.51134565     0.13700
H376        H  0.88382323  0.94164268  0.57195143     0.14300
C377        C  0.75769430  0.10167177  0.46244047    -0.15300
C378        C  0.77250631  0.15311605  0.45875924    -0.30500
H379        H  0.72779439  0.08875318  0.49135476     0.13700
H380        H  0.80180327  0.16499452  0.42877967     0.14300
C381        C  0.09382177  0.46823525  0.73718783    -0.15300
C382        C  0.14743777  0.47315778  0.73295746    -0.30500
H383        H  0.06754495  0.49241041  0.71240063     0.13700
H384        H  0.17328106  0.45154948  0.76040018     0.14300
C385        C  0.83969963  0.24073860  0.86273072    -0.15300
C386        C  0.84268815  0.19066040  0.84427820    -0.30500
H387        H  0.80918381  0.24991386  0.89215108     0.13700
H388        H  0.87338928  0.18032238  0.81550515     0.14300
C389        C  0.89258344  0.51674265  0.91830312    -0.15300
C390        C  0.91936600  0.56341879  0.91969127    -0.30500
H391        H  0.85948809  0.50977594  0.94578960     0.13700
H392        H  0.95013137  0.57272598  0.89033963     0.14300
C393        C  0.81106974  0.31837239  0.66916322    -0.15300
C394        C  0.75981937  0.33603897  0.66922793    -0.30500
H395        H  0.82341675  0.28694579  0.64276653     0.13700
H396        H  0.74869749  0.36802908  0.69553432     0.14300
C397        C  0.07855838  0.39756937  0.00516499    -0.15300
C398        C  0.10230362  0.39564030  0.95735028    -0.30500
H399        H  0.03753654  0.38348660  0.00989291     0.13700
H400        H  0.14453357  0.40571103  0.95297631     0.14300
C401        C  0.00971410  0.59542550  0.11345635    -0.15300
C402        C  0.05958856  0.59248585  0.09200526    -0.30500
H403        H  0.99976615  0.56926465  0.14676226     0.13700
H404        H  0.07093659  0.61844366  0.05904116     0.14300
C405        C  0.35832196  0.46864749  0.21790405    -0.15300
C406        C  0.41136580  0.46503807  0.20831589    -0.30500
H407        H  0.34335529  0.49225719  0.25044005     0.13700
H408        H  0.42553539  0.44276599  0.17450134     0.14300
C409        C  0.30573682  0.56625889  0.99372646    -0.15300
C410        C  0.29643814  0.61923251  0.99557019    -0.30500
H411        H  0.34182293  0.55263138  0.97365804     0.13700
H412        H  0.26138141  0.63436821  0.01621465     0.14300
C413        C  0.25039878  0.33428799  0.52886566    -0.15300
C414        C  0.20980955  0.36839753  0.53639881    -0.30500
H415        H  0.29131582  0.34785422  0.52222868     0.13700
H416        H  0.16922805  0.35315300  0.54185200     0.14300
C417        C  0.05194983  0.22157588  0.68297568    -0.15300
C418        C  0.04652640  0.22840087  0.63024889    -0.30500
H419        H  0.08297329  0.19473058  0.69759159     0.13700
H420        H  0.01663499  0.25566993  0.61427596     0.14300
C421        C  0.95792142  0.07097140  0.37730378    -0.15300
C422        C  0.97815290  0.07419988  0.42637154    -0.30500
H423        H  0.97859344  0.08970625  0.34389843     0.13700
H424        H  0.95573959  0.05893980  0.46038877     0.14300
C425        C  0.13335426  0.32433021  0.27738178    -0.15300
C426        C  0.16325846  0.31977366  0.32148149    -0.30500
H427        H  0.09886244  0.29853622  0.27231342     0.13700
H428        H  0.19566297  0.34758170  0.32853358     0.14300
C429        C  0.12451396  0.98402218  0.59014051    -0.15300
C430        C  0.13878178  0.02748149  0.61650601    -0.30500
H431        H  0.13001206  0.98258281  0.54748921     0.13700
H432        H  0.13593235  0.02835156  0.65940062     0.14300
C433        C  0.38905396  0.97617104  0.09452193    -0.15300
C434        C  0.41361411  0.92821420  0.09591416    -0.30500
H435        H  0.35756796  0.98406001  0.06583852     0.13700
H436        H  0.44270377  0.91871340  0.12651755     0.14300
C437        C  0.25543748  0.12001592  0.35705273    -0.15300
C438        C  0.30676403  0.13654644  0.36150463    -0.30500
H439        H  0.24517638  0.09134502  0.32706210     0.13700
H440        H  0.31810764  0.16407456  0.39210957     0.14300
C441        C  0.33426256  0.25098619  0.18465173    -0.15300
C442        C  0.31765921  0.26508013  0.13580232    -0.30500
H443        H  0.33149590  0.28015406  0.21581250     0.13700
H444        H  0.32453812  0.23866280  0.10290761     0.14300
C445        C  0.58143782  0.08766269  0.02380113    -0.15300
C446        C  0.57370226  0.13505588  0.04607700    -0.30500
H447        H  0.56624634  0.05181827  0.04328744     0.13700
H448        H  0.59233729  0.17045702  0.02896196     0.14300
C449        C  0.55256119  0.24619641  0.34585344    -0.15300
C450        C  0.54414490  0.24378908  0.39850977    -0.30500
H451        H  0.58704954  0.26814379  0.33060143     0.13700
H452        H  0.51093477  0.22077108  0.41489111     0.14300
C453        C  0.61222079  0.02784292  0.23881386    -0.15300
C454        C  0.66505633  0.03525899  0.22995930    -0.30500
H455        H  0.59848650  0.99656391  0.26578100     0.13700
H456        H  0.67792408  0.06775502  0.20399914     0.14300
loop_ 
_geom_bond_atom_site_label_1 
_geom_bond_atom_site_label_2 
_geom_bond_distance 
_geom_bond_site_symmetry_2 
_ccdc_geom_bond_type 
O1           Ni7   1.915       .  S
O1           C22   1.270       .  A
O2          Ni25   1.901       .  S
O2           C11   1.267       .  A
O3           Ni7   1.878       .  S
O3          Ni25   1.889       .  S
O3          Ni19   1.921       .  S
O3           H26   0.965       .  S
C4           O21   1.283       .  A
C4           O13   1.281       .  A
C4          C438   1.475       .  S
O5          Ni24   1.944       .  S
O5           C11   1.277       .  A
O6          Ni24   1.936       .  S
O6            C8   1.274       .  A
Ni7          O10   1.918       .  S
Ni7          O12   1.914       .  S
C8           O18   1.272       .  A
C8          C441   1.484       .  S
O9          Ni25   1.923       .  S
O9           C15   1.278       .  A
O10          C15   1.274       .  A
C11         C433   1.472   1_545  S
O12          C14   1.271       .  A
O13         Ni24   1.922       .  S
C14          O20   1.273       .  A
C14         C453   1.481       .  S
C15         C446   1.470       .  S
H16          O17   0.967       .  S
O17         Ni25   1.890       .  S
O17         Ni19   1.901       .  S
O17         Ni24   1.888       .  S
O18         Ni19   1.936       .  S
Ni19         O23   1.935       .  S
Ni19         O21   1.921       .  S
O20         Ni25   1.933       .  S
C22          O23   1.278       .  A
C22         C449   1.472       .  S
O27         Ni33   1.940       .  S
O27          C48   1.276       .  A
O28         Ni51   1.899       .  S
O28          C37   1.267       .  A
O29         Ni33   1.898       .  S
O29         Ni51   1.886       .  S
O29         Ni45   1.907       .  S
O29          H52   0.966       .  S
C30          O47   1.277       .  A
C30          O39   1.277       .  A
C30         C426   1.477       .  S
O31         Ni50   1.920       .  S
O31          C37   1.270       .  A
O32         Ni50   1.910       .  S
O32          C34   1.267       .  A
Ni33         O36   1.930       .  S
Ni33         O38   1.905       .  S
C34          O44   1.266       .  A
C34         C437   1.469       .  S
O35         Ni51   1.906       .  S
O35          C41   1.276       .  A
O36          C41   1.280       .  A
C37         C422   1.465   1_455  S
O38          C40   1.269       .  A
O39         Ni50   1.924       .  S
C40          O46   1.275       .  A
C40         C418   1.485       .  S
C41         C430   1.463       .  S
H42          O43   0.967       .  S
O43         Ni51   1.904       .  S
O43         Ni45   1.899       .  S
O43         Ni50   1.902       .  S
O44         Ni45   1.917       .  S
Ni45         O49   1.887       .  S
Ni45         O47   1.918       .  S
O46         Ni51   1.943       .  S
C48          O49   1.259       .  A
C48         C413   1.458       .  S
O53         Ni59   1.927       .  S
O53          C74   1.275       .  A
O54         Ni77   1.894       .  S
O54          C63   1.266       .  A
O55         Ni59   1.881       .  S
O55         Ni77   1.891       .  S
O55         Ni71   1.929       .  S
O55          H78   0.965       .  S
C56          O73   1.284       .  A
C56          O65   1.280       .  A
C56         C402   1.491       .  S
O57         Ni76   1.949       .  S
O57          C63   1.278       .  A
O58         Ni76   1.918       .  S
O58          C60   1.273       .  A
Ni59         O62   1.933       .  S
Ni59         O64   1.912       .  S
C60          O70   1.276       .  A
C60         C397   1.481       .  S
O61         Ni77   1.938       .  S
O61          C67   1.278       .  A
O62          C67   1.276       .  A
C63         C425   1.472       .  S
O64          C66   1.273       .  A
O65         Ni76   1.928       .  S
C66          O72   1.273       .  A
C66         C405   1.481       .  S
C67         C442   1.487       .  S
H68          O69   0.967       .  S
O69         Ni77   1.904       .  S
O69         Ni71   1.904       .  S
O69         Ni76   1.893       .  S
O70         Ni71   1.939       .  S
Ni71         O75   1.934       .  S
Ni71         O73   1.936       .  S
O72         Ni77   1.929       .  S
C74          O75   1.279       .  A
C74         C409   1.482   1_554  S
O79         Ni85   1.924       .  S
O79         C100   1.270       .  A
O80        Ni103   1.909       .  S
O80          C89   1.266       .  A
O81         Ni85   1.920       .  S
O81        Ni103   1.914   1_455  S
O81         Ni97   1.935   1_455  S
O81         H104   0.966   1_455  S
C82          O99   1.279       .  A
C82          O91   1.279       .  A
C82         C393   1.487       .  S
O83        Ni102   1.945       .  S
O83          C89   1.275       .  A
O84        Ni102   1.914       .  S
O84          C86   1.271       .  A
Ni85         O88   1.925       .  S
Ni85         O90   1.906       .  S
C86          O96   1.275       .  A
C86         C385   1.484       .  S
O87        Ni103   1.922   1_455  S
O87          C93   1.273       .  A
O88          C93   1.272       .  A
C89         C389   1.479       .  S
O90          C92   1.269       .  A
O91        Ni102   1.927       .  S
C92          O98   1.271       .  A
C92         C381   1.473       .  S
C93         C398   1.477       .  S
H94          O95   0.966       .  S
O95        Ni103   1.901       .  S
O95         Ni97   1.910       .  S
O95        Ni102   1.899       .  S
O96         Ni97   1.945       .  S
Ni97        O101   1.920       .  S
Ni97         O99   1.927       .  S
O98        Ni103   1.928   1_455  S
C100        O101   1.271   1_455  A
C100        C417   1.470       .  S
O105       Ni111   1.921       .  S
O105        C126   1.273       .  A
O106       Ni129   1.896       .  S
O106        C115   1.266       .  A
O107       Ni111   1.880   1_565  S
O107       Ni129   1.889       .  S
O107       Ni123   1.917       .  S
O107        H130   0.966       .  S
C108        O125   1.281       .  A
C108        O117   1.276       .  A
C108        C365   1.476       .  S
O109       Ni128   1.926       .  S
O109        C115   1.270       .  A
O110       Ni128   1.908       .  S
O110        C112   1.267       .  A
Ni111       O114   1.921       .  S
Ni111       O116   1.912       .  S
C112        O122   1.272       .  A
C112        C370   1.470       .  S
O113       Ni129   1.911   1_545  S
O113        C119   1.273       .  A
O114        C119   1.276       .  A
C115        C373   1.459       .  S
O116        C118   1.272       .  A
O117       Ni128   1.905       .  S
C118        O124   1.275       .  A
C118        C377   1.482       .  S
C119        C421   1.465       .  S
H120        O121   0.966       .  S
O121       Ni129   1.893       .  S
O121       Ni123   1.902       .  S
O121       Ni128   1.895       .  S
O122       Ni123   1.932       .  S
Ni123       O127   1.918       .  S
Ni123       O125   1.928       .  S
O124       Ni129   1.936   1_545  S
C126        O127   1.274   1_545  A
C126        C454   1.465       .  S
O131       Ni137   1.937   1_655  S
O131        C152   1.277       .  A
O132       Ni155   1.885       .  S
O132        C141   1.264       .  A
O133       Ni137   1.889       .  S
O133       Ni155   1.878       .  S
O133       Ni149   1.894       .  S
O133        H156   0.966       .  S
C134        O151   1.270       .  A
C134        O143   1.275       .  A
C134        C374   1.468       .  S
O135       Ni154   1.919       .  S
O135        C141   1.272       .  A
O136       Ni154   1.905       .  S
O136        C138   1.267       .  A
Ni137       O140   1.924       .  S
Ni137       O142   1.913       .  S
C138        O148   1.274       .  A
C138        C429   1.462       .  S
O139       Ni155   1.906       .  S
O139        C145   1.276       .  A
O140        C145   1.279       .  A
C141        C357   1.456       .  S
O142        C144   1.271       .  A
O143       Ni154   1.919   1_655  S
C144        O150   1.271       .  A
C144        C349   1.480       .  S
C145        C362   1.466       .  S
H146        O147   0.967       .  S
O147       Ni155   1.906       .  S
O147       Ni149   1.901       .  S
O147       Ni154   1.903       .  S
O148       Ni149   1.929       .  S
Ni149       O153   1.892   1_455  S
Ni149       O151   1.905   1_455  S
O150       Ni155   1.931       .  S
C152        O153   1.263       .  A
C152        C354   1.462       .  S
O157       Ni163   1.925   1_554  S
O157        C178   1.273       .  A
O158       Ni181   1.887       .  S
O158        C167   1.265       .  A
O159       Ni163   1.884       .  S
O159       Ni181   1.886       .  S
O159       Ni175   1.921   1_556  S
O159        H182   0.966       .  S
C160        O177   1.282       .  A
C160        O169   1.276       .  A
C160        C434   1.482       .  S
O161       Ni180   1.927       .  S
O161        C167   1.273       .  A
O162       Ni180   1.914       .  S
O162        C164   1.271       .  A
Ni163       O166   1.928       .  S
Ni163       O168   1.913       .  S
C164        O174   1.277       .  A
C164        C341   1.482       .  S
O165       Ni181   1.918       .  S
O165        C171   1.275       .  A
O166        C171   1.277       .  A
C167        C361   1.459       .  S
O168        C170   1.271       .  A
O169       Ni180   1.914   1_554  S
C170        O176   1.278       .  A
C170        C410   1.498       .  S
C171        C346   1.476       .  S
H172        O173   0.967       .  S
O173       Ni181   1.906       .  S
O173       Ni175   1.900   1_556  S
O173       Ni180   1.900       .  S
O174       Ni175   1.946   1_556  S
Ni175       O179   1.917       .  S
Ni175       O177   1.932       .  S
O176       Ni181   1.952       .  S
C178        O179   1.274       .  A
C178        C337   1.466       .  S
O183       Ni189   1.925       .  S
O183        C204   1.272       .  A
O184       Ni207   1.894       .  S
O184        C193   1.267       .  A
O185       Ni189   1.901       .  S
O185       Ni207   1.886       .  S
O185       Ni201   1.899       .  S
O185        H208   0.966       .  S
C186        O203   1.271       .  A
C186        O195   1.276       .  A
C186        C329   1.467       .  S
O187       Ni206   1.936       .  S
O187        C193   1.275       .  A
O188       Ni206   1.911       .  S
O188        C190   1.272       .  A
Ni189       O192   1.913       .  S
Ni189       O194   1.919       .  S
C190        O200   1.276       .  A
C190        C333   1.475       .  S
O191       Ni207   1.907       .  S
O191        C197   1.275       .  A
O192        C197   1.275       .  A
C193        C345   1.472       .  S
O194        C196   1.270       .  A
O195       Ni206   1.923       .  S
C196        O202   1.270       .  A
C196        C382   1.473       .  S
C197        C358   1.459       .  S
H198        O199   0.966       .  S
O199       Ni207   1.901       .  S
O199       Ni201   1.902       .  S
O199       Ni206   1.892       .  S
O200       Ni201   1.946       .  S
Ni201       O205   1.888       .  S
Ni201       O203   1.904       .  S
O202       Ni207   1.922       .  S
C204        O205   1.267       .  A
C204        C414   1.462       .  S
O209       Ni215   1.916       .  S
O209        C230   1.271       .  A
O210       Ni233   1.896       .  S
O210        C219   1.267       .  A
O211       Ni215   1.879       .  S
O211       Ni233   1.891       .  S
O211       Ni227   1.927       .  S
O211        H234   0.965       .  S
C212        O229   1.285       .  A
C212        O221   1.282       .  A
C212        C334   1.483       .  S
O213       Ni232   1.934       .  S
O213        C219   1.276       .  A
O214       Ni232   1.936       .  S
O214        C216   1.272       .  A
Ni215       O218   1.920       .  S
Ni215       O220   1.913       .  S
C216        O226   1.268       .  A
C216        C321   1.477       .  S
O217       Ni233   1.936       .  S
O217        C223   1.278       .  A
O218        C223   1.274       .  A
C219        C366   1.463       .  S
O220        C222   1.272       .  A
O221       Ni232   1.926       .  S
C222        O228   1.274       .  A
C222        C338   1.480       .  S
C223        C325   1.478       .  S
H224        O225   0.967       .  S
O225       Ni233   1.898       .  S
O225       Ni227   1.894       .  S
O225       Ni232   1.889       .  S
O226       Ni227   1.926       .  S
Ni227       O231   1.919       .  S
Ni227       O229   1.930       .  S
O228       Ni233   1.935       .  S
C230        O231   1.274       .  A
C230        C406   1.463       .  S
O235       Ni241   1.926       .  S
O235        C256   1.274       .  A
O236       Ni259   1.896       .  S
O236        C245   1.266       .  A
O237       Ni241   1.884       .  S
O237       Ni259   1.892       .  S
O237       Ni253   1.927       .  S
O237        H260   0.965       .  S
C238        O255   1.283       .  A
C238        O247   1.277       .  A
C238        C318   1.484       .  S
O239       Ni258   1.926       .  S
O239        C245   1.271       .  A
O240       Ni258   1.908       .  S
O240        C242   1.269       .  A
Ni241       O244   1.934       .  S
Ni241       O246   1.918       .  S
C242        O252   1.274       .  A
C242        C394   1.478       .  S
O243       Ni259   1.929       .  S
O243        C249   1.278       .  A
O244        C249   1.277       .  A
C245        C330   1.457       .  S
O246        C248   1.273       .  A
O247       Ni258   1.915       .  S
C248        O254   1.273       .  A
C248        C450   1.489       .  S
C249        C322   1.487       .  S
H250        O251   0.966       .  S
O251       Ni259   1.899       .  S
O251       Ni253   1.902       .  S
O251       Ni258   1.887       .  S
O252       Ni253   1.948       .  S
Ni253       O257   1.918       .  S
Ni253       O255   1.933       .  S
O254       Ni259   1.934       .  S
C256        O257   1.275       .  A
C256        C378   1.468       .  S
O261       Ni267   1.926       .  S
O261        C282   1.272       .  A
O262       Ni285   1.879       .  S
O262        C271   1.263       .  A
O263       Ni267   1.915       .  S
O263       Ni285   1.894   1_565  S
O263       Ni279   1.932   1_565  S
O263        H286   0.966   1_565  S
C264        O281   1.280       .  A
C264        O273   1.279       .  A
C264        C386   1.490       .  S
O265       Ni284   1.943       .  S
O265        C271   1.277       .  A
O266       Ni284   1.914       .  S
O266        C268   1.272       .  A
Ni267       O270   1.931       .  S
Ni267       O272   1.908       .  S
C268        O278   1.272       .  A
C268        C317   1.475       .  S
O269       Ni285   1.925   1_565  S
O269        C275   1.274       .  A
O270        C275   1.275       .  A
C271        C445   1.464   1_556  S
O272        C274   1.269       .  A
O273       Ni284   1.935       .  S
C274        O280   1.273       .  A
C274        C314   1.477       .  S
C275        C342   1.484       .  S
H276        O277   0.966       .  S
O277       Ni285   1.904       .  S
O277       Ni279   1.895       .  S
O277       Ni284   1.897       .  S
O278       Ni279   1.935       .  S
Ni279       O283   1.895       .  S
Ni279       O281   1.929       .  S
O280       Ni285   1.934   1_565  S
C282        O283   1.268   1_565  A
C282        C353   1.464       .  S
O287       Ni293   1.921   1_556  S
O287        C308   1.271       .  A
O288       Ni311   1.894       .  S
O288        C297   1.264       .  A
O289       Ni293   1.917       .  S
O289       Ni311   1.901       .  S
O289       Ni305   1.933       .  S
O289        H312   0.966       .  S
C290        O307   1.282       .  A
C290        O299   1.278   1_556  A
C290        C390   1.487       .  S
O291       Ni310   1.945       .  S
O291        C297   1.276       .  A
O292       Ni310   1.913       .  S
O292        C294   1.272       .  A
Ni293       O296   1.927       .  S
Ni293       O298   1.914       .  S
C294        O304   1.276       .  A
C294        C401   1.483   1_655  S
O295       Ni311   1.908       .  S
O295        C301   1.270       .  A
O296        C301   1.273       .  A
C297        C326   1.477       .  S
O298        C300   1.269       .  A
O299       Ni310   1.925       .  S
C300        O306   1.271       .  A
C300        C313   1.475   1_554  S
C301        C369   1.474       .  S
H302        O303   0.966       .  S
O303       Ni311   1.899       .  S
O303       Ni305   1.908       .  S
O303       Ni310   1.899       .  S
O304       Ni305   1.948       .  S
Ni305       O309   1.919   1_554  S
Ni305       O307   1.931   1_554  S
O306       Ni311   1.928       .  S
C308        O309   1.273       .  A
C308        C350   1.466   1_655  S
C313        C314   1.346       .  D
C313        H315   1.087       .  S
C314        H316   1.087   1_556  S
C317        C318   1.354       .  D
C317        H319   1.088       .  S
C318        H320   1.086       .  S
C321        C322   1.344       .  D
C321        H323   1.087       .  S
C322        H324   1.086       .  S
C325        C326   1.344       .  D
C325        H327   1.087       .  S
C326        H328   1.087       .  S
C329        C330   1.341       .  D
C329        H331   1.086       .  S
C330        H332   1.088       .  S
C333        C334   1.352       .  D
C333        H335   1.088       .  S
C334        H336   1.086       .  S
C337        C338   1.347       .  D
C337        H339   1.087       .  S
C338        H340   1.086       .  S
C341        C342   1.344       .  D
C341        H343   1.087       .  S
C342        H344   1.086       .  S
C345        C346   1.347       .  D
C345        H347   1.087       .  S
C346        H348   1.087       .  S
C349        C350   1.345       .  D
C349        H351   1.086   1_455  S
C350        H352   1.087       .  S
C353        C354   1.340       .  D
C353        H355   1.089       .  S
C354        H356   1.086   1_565  S
C357        C358   1.341       .  D
C357        H359   1.087       .  S
C358        H360   1.087       .  S
C361        C362   1.343       .  D
C361        H363   1.087       .  S
C362        H364   1.087       .  S
C365        C366   1.349       .  D
C365        H367   1.086       .  S
C366        H368   1.087       .  S
C369        C370   1.342       .  D
C369        H371   1.087       .  S
C370        H372   1.087       .  S
C373        C374   1.341       .  D
C373        H375   1.088       .  S
C374        H376   1.086       .  S
C377        C378   1.348       .  D
C377        H379   1.086       .  S
C378        H380   1.087       .  S
C381        C382   1.344       .  D
C381        H383   1.087       .  S
C382        H384   1.087       .  S
C385        C386   1.353       .  D
C385        H387   1.087       .  S
C386        H388   1.086       .  S
C389        C390   1.353       .  D
C389        H391   1.087       .  S
C390        H392   1.086       .  S
C393        C394   1.350       .  D
C393        H395   1.086       .  S
C394        H396   1.087       .  S
C397        C398   1.344   1_554  D
C397        H399   1.087       .  S
C398        H400   1.087       .  S
C401        C402   1.354       .  D
C401        H403   1.087   1_455  S
C402        H404   1.086       .  S
C405        C406   1.344       .  D
C405        H407   1.086       .  S
C406        H408   1.087       .  S
C409        C410   1.354       .  D
C409        H411   1.087       .  S
C410        H412   1.086   1_556  S
C413        C414   1.339       .  D
C413        H415   1.086       .  S
C414        H416   1.089       .  S
C417        C418   1.348       .  D
C417        H419   1.087       .  S
C418        H420   1.086       .  S
C421        C422   1.345       .  D
C421        H423   1.087       .  S
C422        H424   1.087       .  S
C425        C426   1.347       .  D
C425        H427   1.087       .  S
C426        H428   1.087       .  S
C429        C430   1.340   1_565  D
C429        H431   1.087       .  S
C430        H432   1.087       .  S
C433        C434   1.352       .  D
C433        H435   1.087       .  S
C434        H436   1.086       .  S
C437        C438   1.351       .  D
C437        H439   1.087       .  S
C438        H440   1.086       .  S
C441        C442   1.346       .  D
C441        H443   1.088       .  S
C442        H444   1.086       .  S
C445        C446   1.341       .  D
C445        H447   1.087       .  S
C446        H448   1.087       .  S
C449        C450   1.346       .  D
C449        H451   1.087       .  S
C450        H452   1.086       .  S
C453        C454   1.346       .  D
C453        H455   1.086   1_545  S
C454        H456   1.087       .  S
