geometry optimzed in LAMMPS
_audit_creation_date              2020-11-30 
_audit_creation_method            'lammps2cif' 
_symmetry_space_group_name_H-M    'P1' 
_symmetry_Int_Tables_number       1 
_symmetry_cell_setting            triclinic 
loop_ 
_symmetry_equiv_pos_as_xyz 
  x,y,z 
_cell_length_a                    39.83792468794461 
_cell_length_b                    36.48365267844117 
_cell_length_c                    23.765554080626828 
_cell_angle_alpha                 90.00603396878608 
_cell_angle_beta                  89.99934913589739 
_cell_angle_gamma                 90.00258294055601 
loop_ 
_atom_site_label 
_atom_site_type_symbol 
_atom_site_fract_x 
_atom_site_fract_y 
_atom_site_fract_z 
_atom_site_charge 
N1          N  0.42874988  0.08590845  0.06078032    -0.27220
N2          N  0.41757459  0.05362311  0.07771210    -0.35080
C3          C  0.43991458  0.02778101  0.06212332     0.01120
C4          C  0.46620632  0.04472626  0.03376327     0.07150
C5          C  0.45796639  0.08151276  0.03371980    -0.05950
H6          H  0.43767590  0.99892640  0.07201982     0.07810
H7          H  0.47186113  0.10391334  0.01562656     0.09010
Cu8        Cu  0.37301419  0.04714371  0.12276850     0.44170
Cu9        Cu  0.40734028  0.13608757  0.07889885     0.41990
Cu10       Cu  0.34057321  0.13553063  0.17403495     0.43880
N11         N  0.32874291  0.05333323  0.16872503    -0.34610
N12         N  0.31843733  0.08521710  0.18879276    -0.28860
C13         C  0.28925320  0.08057911  0.21588973    -0.04960
C14         C  0.28004661  0.04416544  0.21217111     0.07260
C15         C  0.30581099  0.02758205  0.18209979     0.01050
H16         H  0.27602141  0.10251557  0.23661012     0.08700
H17         H  0.30729316  0.99909536  0.16961796     0.07780
N18         N  0.36154110  0.18387745  0.14547684    -0.36050
N19         N  0.38649381  0.18405364  0.10900180    -0.28230
C20         C  0.39488213  0.21891995  0.09725313    -0.03470
C21         C  0.37399114  0.24178439  0.12779794     0.05140
C22         C  0.35311383  0.21864790  0.15790401     0.03230
H23         H  0.41467887  0.22694579  0.06866425     0.08340
H24         H  0.33325135  0.22642743  0.18652463     0.07170
C25         C  0.49770006  0.99654716  0.48142821     0.00640
C26         C  0.49795309  0.02779595  0.01295600     0.00630
N27         N  0.17875499  0.08562746  0.18410285    -0.27220
N28         N  0.16757861  0.05340513  0.16688551    -0.35080
C29         C  0.18991926  0.02750488  0.18224738     0.01120
C30         C  0.21621322  0.04435455  0.21073924     0.07150
C31         C  0.20797187  0.08113728  0.21111408    -0.05950
H32         H  0.18767744  0.99868254  0.17212402     0.07810
H33         H  0.22186308  0.10347214  0.22941233     0.09010
Cu34       Cu  0.12301417  0.04713615  0.12176944     0.44170
Cu35       Cu  0.15734361  0.13586856  0.16647491     0.41990
Cu36       Cu  0.09056973  0.13576959  0.07136425     0.43880
N37         N  0.07874828  0.05354398  0.07586750    -0.34610
N38         N  0.06844037  0.08550559  0.05610412    -0.28860
C39         C  0.03925622  0.08096698  0.02895906    -0.04960
C40         C  0.03005439  0.04453550  0.03232471     0.07260
C41         C  0.05581903  0.02784504  0.06225043     0.01050
H42         H  0.02601810  0.10298355  0.00845975     0.08700
H43         H  0.05730016  0.99931443  0.07448504     0.07780
N44         N  0.11156750  0.18398297  0.10043578    -0.36050
N45         N  0.13652457  0.18397579  0.13690222    -0.28230
C46         C  0.14493322  0.21877953  0.14904592    -0.03470
C47         C  0.12405146  0.24179944  0.11877274     0.05140
C48         C  0.10315773  0.21881736  0.08840899     0.03230
H49         H  0.16473361  0.22665753  0.17772631     0.08340
H50         H  0.08329222  0.22674437  0.05989318     0.07170
N51         N  0.31696916  0.93801035  0.31052360    -0.27220
N52         N  0.32809168  0.97028203  0.32762859    -0.35080
C53         C  0.30571802  0.99611540  0.31215484     0.01120
C54         C  0.27945972  0.97918114  0.28369267     0.07150
C55         C  0.28775662  0.94241090  0.28345195    -0.05950
H56         H  0.30791339  0.02495504  0.32218971     0.07810
H57         H  0.27390635  0.92002747  0.26520473     0.09010
Cu58       Cu  0.37263429  0.97677507  0.37273332     0.44170
Cu59       Cu  0.33842155  0.88782602  0.32846601     0.41990
Cu60       Cu  0.40516365  0.88837894  0.42364888     0.43880
N61         N  0.41691878  0.97059340  0.41865365    -0.34610
N62         N  0.42726408  0.93868954  0.43857369    -0.28860
C63         C  0.45644977  0.94331712  0.46566710    -0.04960
C64         C  0.46561359  0.97975098  0.46211941     0.07260
C65         C  0.43982474  0.99635235  0.43213158     0.01050
H66         H  0.46971164  0.92135669  0.48626201     0.08700
H67         H  0.43831074  0.02485744  0.41976917     0.07780
N68         N  0.38421259  0.84003538  0.39503829    -0.36050
N69         N  0.35926967  0.83985602  0.35854532    -0.28230
C70         C  0.35087681  0.80498752  0.34680469    -0.03470
C71         C  0.37175519  0.78212698  0.37737444     0.05140
C72         C  0.39262933  0.80526728  0.40748451     0.03230
H73         H  0.33107918  0.79695745  0.31821842     0.08340
H74         H  0.41247592  0.79749206  0.43613551     0.07170
C75         C  0.24795407  0.02736849  0.23143934     0.00640
C76         C  0.24770323  0.99610788  0.26293141     0.00630
N77         N  0.17726069  0.93837553  0.30621628    -0.27220
N78         N  0.16690818  0.97035652  0.32584924    -0.35080
C79         C  0.18981405  0.99606317  0.31216291     0.01120
C80         C  0.21560986  0.97935886  0.28232163     0.07150
C81         C  0.20645300  0.94290685  0.27909462    -0.05950
H82         H  0.18829651  0.02461118  0.32429814     0.07810
H83         H  0.21972620  0.92086852  0.25871177     0.09010
Cu84       Cu  0.12262227  0.97678040  0.37169557     0.44170
Cu85       Cu  0.15517099  0.88810742  0.32159813     0.41990
Cu86       Cu  0.08840566  0.88807342  0.41672349     0.43880
N87         N  0.07807544  0.97052099  0.41686447    -0.34610
N88         N  0.06694847  0.93831167  0.43421981    -0.28860
C89         C  0.03773988  0.94280403  0.46125862    -0.04960
C90         C  0.02944752  0.97957085  0.46073829     0.07260
C91         C  0.05570757  0.99641335  0.43215553     0.01050
H92         H  0.02389282  0.92048420  0.47969005     0.08700
H93         H  0.05790967  0.02522302  0.42193225     0.07780
N94         N  0.10922828  0.83994606  0.38722438    -0.36050
N95         N  0.13418155  0.83991324  0.35074986    -0.28230
C96         C  0.14258459  0.80507028  0.33875828    -0.03470
C97         C  0.12169051  0.78210982  0.36915438     0.05140
C98         C  0.10081555  0.80515111  0.39940934     0.03230
H99         H  0.16244252  0.79712281  0.31023753     0.08340
H100        H  0.08101309  0.79729365  0.42809701     0.07170
N101        N  0.42724187  0.58553603  0.44076829    -0.27220
N102        N  0.41688347  0.55355405  0.42114415    -0.35080
C103        C  0.43978442  0.52784646  0.43483763     0.01120
C104        C  0.46558267  0.54455117  0.46467472     0.07150
C105        C  0.45643155  0.58100402  0.46789443    -0.05950
H106        H  0.43826322  0.49929783  0.42270620     0.07810
H107        H  0.46970799  0.60304355  0.48827102     0.09010
Cu108      Cu  0.37259814  0.54712787  0.37529672     0.44170
Cu109      Cu  0.40517695  0.63580833  0.42534597     0.41990
Cu110      Cu  0.33841318  0.63582959  0.33022101     0.43880
N111        N  0.32805095  0.55338576  0.33013061    -0.34610
N112        N  0.31693132  0.58559466  0.31276550    -0.28860
C113        C  0.28772088  0.58110361  0.28573080    -0.04960
C114        C  0.27942121  0.54433778  0.28626019     0.07260
C115        C  0.30567758  0.52749478  0.31484755     0.01050
H116        H  0.27387868  0.60342264  0.26729092     0.08700
H117        H  0.30787481  0.49868554  0.32507501     0.07780
N118        N  0.35926586  0.68396111  0.35965581    -0.36050
N119        N  0.38421851  0.68399886  0.39613056    -0.28230
C120        C  0.39263803  0.71884314  0.40808550    -0.03470
C121        C  0.37175509  0.74179975  0.37766569     0.05140
C122        C  0.35087009  0.71875464  0.34743391     0.03230
H123        H  0.41249586  0.72679404  0.43660497     0.08340
H124        H  0.33106842  0.72660860  0.31874469     0.07170
N125        N  0.42870643  0.43829396  0.06285107    -0.27220
N126        N  0.41754682  0.47051333  0.08010651    -0.35080
C127        C  0.43989907  0.49641009  0.06476855     0.01120
C128        C  0.46618329  0.47956027  0.03625414     0.07150
C129        C  0.45792425  0.44278204  0.03583933    -0.05950
H130        H  0.43767021  0.52522957  0.07491767     0.07810
H131        H  0.47180245  0.42045019  0.01750748     0.09010
Cu132      Cu  0.37298541  0.47677604  0.12523167     0.44170
Cu133      Cu  0.40726470  0.38805921  0.08042212     0.41990
Cu134      Cu  0.34049620  0.38812427  0.17554552     0.43880
N135        N  0.32871704  0.47036055  0.17112552    -0.34610
N136        N  0.31839549  0.43839521  0.19085960    -0.28860
C137        C  0.28921255  0.44293540  0.21800705    -0.04960
C138        C  0.28002480  0.47937155  0.21467077     0.07260
C139        C  0.30579719  0.49606280  0.18476152     0.01050
H140        H  0.27596497  0.42091549  0.23848395     0.08700
H141        H  0.30728876  0.52459649  0.17254643     0.07780
N142        N  0.36148166  0.33992031  0.14641553    -0.36050
N143        N  0.38643648  0.33994283  0.10994386    -0.28230
C144        C  0.39484956  0.30514484  0.09777714    -0.03470
C145        C  0.37397393  0.28211172  0.12804143     0.05140
C146        C  0.35307778  0.30508034  0.15842286     0.03230
H147        H  0.41465477  0.29727982  0.06909848     0.08340
H148        H  0.33322043  0.29714036  0.18694842     0.07170
N149        N  0.17723029  0.58522374  0.30834348    -0.27220
N150        N  0.16688062  0.55332246  0.32827246    -0.35080
C151        C  0.18979119  0.52756416  0.31482596     0.01120
C152        C  0.21558782  0.54416283  0.28485108     0.07150
C153        C  0.20642499  0.58059462  0.28127754    -0.05950
H154        H  0.18827373  0.49906105  0.32719884     0.07810
H155        H  0.21969291  0.60255175  0.26068036     0.09010
Cu156      Cu  0.12258798  0.54713475  0.37417042     0.44170
Cu157      Cu  0.15511972  0.63553425  0.32320776     0.41990
Cu158      Cu  0.08837126  0.63608020  0.41837775     0.43880
N159        N  0.07805244  0.55362285  0.41929421    -0.34610
N160        N  0.06693095  0.58589708  0.43638349    -0.28860
C161        C  0.03772655  0.58149847  0.46348171    -0.04960
C162        C  0.02943228  0.54472629  0.46327399     0.07260
C163        C  0.05568519  0.52778904  0.43480334     0.01050
H164        H  0.02387946  0.60388533  0.48172081     0.08700
H165        H  0.05788007  0.49894720  0.42478456     0.07780
N166        N  0.10920358  0.68405204  0.38826535    -0.36050
N167        N  0.13414939  0.68387581  0.35177706    -0.28230
C168        C  0.14256228  0.71864504  0.33932453    -0.03470
C169        C  0.12168298  0.74178257  0.36942681     0.05140
C170        C  0.10080499  0.71891932  0.39999679     0.03230
H171        H  0.16241482  0.72642296  0.31068469     0.08340
H172        H  0.08100882  0.72694673  0.42858695     0.07170
C173        C  0.49767658  0.52780236  0.48405436     0.00640
C174        C  0.49792564  0.49654212  0.01554708     0.00630
C175        C  0.24792459  0.49611458  0.23403125     0.00640
C176        C  0.24767401  0.52736298  0.26555980     0.00630
N177        N  0.06840606  0.43868380  0.05815649    -0.27260
N178        N  0.07872432  0.47056920  0.07820575    -0.35080
C179        C  0.05579355  0.49632192  0.06484487     0.01120
C180        C  0.03001644  0.47973935  0.03480226     0.07150
C181        C  0.03921290  0.44332308  0.03108868    -0.05950
H182        H  0.05728630  0.52481016  0.07731559     0.07810
H183        H  0.02596918  0.42138610  0.01038789     0.09010
Cu184      Cu  0.12300684  0.47677068  0.12412925     0.44170
Cu185      Cu  0.09054571  0.38836697  0.07287328     0.41990
Cu186      Cu  0.15732094  0.38783851  0.16798489     0.43880
N187        N  0.16755753  0.47030008  0.16921315    -0.34610
N188        N  0.17872323  0.43801385  0.18615093    -0.28860
C189        C  0.20793013  0.44240583  0.21324055    -0.04960
C190        C  0.21617684  0.47919118  0.21320659     0.07260
C191        C  0.18989630  0.49614017  0.18482486     0.01050
H192        H  0.22181402  0.42000290  0.23134444     0.08700
H193        H  0.18766554  0.52499526  0.17492836     0.07780
N194        N  0.13650848  0.33986451  0.13784611    -0.36050
N195        N  0.11155159  0.34002707  0.10138005    -0.28230
C196        C  0.10314905  0.30525118  0.08893372    -0.03470
C197        C  0.12404708  0.28212694  0.11901908     0.05140
C198        C  0.14492422  0.30500374  0.14956994     0.03230
H199        H  0.08328660  0.29745940  0.06032019     0.08340
H200        H  0.16472739  0.29699012  0.17815216     0.07170
N201        N  0.42874989  0.08590845  0.56078033    -0.27220
N202        N  0.41757459  0.05362312  0.57771210    -0.35080
C203        C  0.43991458  0.02778101  0.56212332     0.01120
C204        C  0.46620632  0.04472626  0.53376327     0.07150
C205        C  0.45796640  0.08151276  0.53371980    -0.05950
H206        H  0.43767589  0.99892640  0.57201981     0.07810
H207        H  0.47186114  0.10391334  0.51562657     0.09010
Cu208      Cu  0.37301419  0.04714371  0.62276849     0.44170
Cu209      Cu  0.40734028  0.13608757  0.57889885     0.41990
Cu210      Cu  0.34057321  0.13553063  0.67403495     0.43880
N211        N  0.32874291  0.05333323  0.66872502    -0.34610
N212        N  0.31843733  0.08521710  0.68879275    -0.28860
C213        C  0.28925320  0.08057911  0.71588972    -0.04960
C214        C  0.28004661  0.04416544  0.71217110     0.07260
C215        C  0.30581099  0.02758205  0.68209978     0.01050
H216        H  0.27602142  0.10251557  0.73661012     0.08700
H217        H  0.30729316  0.99909536  0.66961795     0.07780
N218        N  0.36154110  0.18387745  0.64547684    -0.36050
N219        N  0.38649381  0.18405364  0.60900180    -0.28230
C220        C  0.39488213  0.21891995  0.59725313    -0.03470
C221        C  0.37399114  0.24178439  0.62779794     0.05140
C222        C  0.35311382  0.21864790  0.65790401     0.03230
H223        H  0.41467887  0.22694579  0.56866425     0.08340
H224        H  0.33325134  0.22642743  0.68652462     0.07170
C225        C  0.49770006  0.99654716  0.98142821     0.00640
C226        C  0.49795310  0.02779595  0.51295600     0.00630
N227        N  0.17875499  0.08562746  0.68410283    -0.27220
N228        N  0.16757861  0.05340513  0.66688550    -0.35080
C229        C  0.18991926  0.02750488  0.68224737     0.01120
C230        C  0.21621322  0.04435455  0.71073923     0.07150
C231        C  0.20797188  0.08113728  0.71111406    -0.05950
H232        H  0.18767744  0.99868254  0.67212402     0.07810
H233        H  0.22186308  0.10347214  0.72941231     0.09010
Cu234      Cu  0.12301417  0.04713615  0.62176943     0.44170
Cu235      Cu  0.15734362  0.13586856  0.66647489     0.41990
Cu236      Cu  0.09056973  0.13576959  0.57136423     0.43880
N237        N  0.07874828  0.05354399  0.57586750    -0.34610
N238        N  0.06844037  0.08550559  0.55610411    -0.28860
C239        C  0.03925622  0.08096698  0.52895905    -0.04960
C240        C  0.03005439  0.04453550  0.53232470     0.07260
C241        C  0.05581903  0.02784504  0.56225042     0.01050
H242        H  0.02601810  0.10298355  0.50845974     0.08700
H243        H  0.05730016  0.99931443  0.57448504     0.07780
N244        N  0.11156750  0.18398297  0.60043576    -0.36050
N245        N  0.13652457  0.18397579  0.63690219    -0.28230
C246        C  0.14493323  0.21877953  0.64904590    -0.03470
C247        C  0.12405147  0.24179944  0.61877272     0.05140
C248        C  0.10315774  0.21881736  0.58840897     0.03230
H249        H  0.16473362  0.22665753  0.67772628     0.08340
H250        H  0.08329223  0.22674437  0.55989316     0.07170
N251        N  0.31696915  0.93801035  0.81052360    -0.27220
N252        N  0.32809168  0.97028203  0.82762859    -0.35080
C253        C  0.30571802  0.99611540  0.81215484     0.01120
C254        C  0.27945972  0.97918114  0.78369266     0.07150
C255        C  0.28775662  0.94241090  0.78345194    -0.05950
H256        H  0.30791339  0.02495505  0.82218971     0.07810
H257        H  0.27390635  0.92002747  0.76520473     0.09010
Cu258      Cu  0.37263429  0.97677507  0.87273331     0.44170
Cu259      Cu  0.33842154  0.88782602  0.82846601     0.41990
Cu260      Cu  0.40516364  0.88837894  0.92364888     0.43880
N261        N  0.41691878  0.97059340  0.91865365    -0.34610
N262        N  0.42726408  0.93868954  0.93857369    -0.28860
C263        C  0.45644977  0.94331712  0.96566710    -0.04960
C264        C  0.46561359  0.97975098  0.96211941     0.07260
C265        C  0.43982474  0.99635235  0.93213157     0.01050
H266        H  0.46971164  0.92135669  0.98626201     0.08700
H267        H  0.43831074  0.02485744  0.91976916     0.07780
N268        N  0.38421259  0.84003539  0.89503830    -0.36050
N269        N  0.35926967  0.83985602  0.85854533    -0.28230
C270        C  0.35087681  0.80498752  0.84680470    -0.03470
C271        C  0.37175519  0.78212698  0.87737445     0.05140
C272        C  0.39262933  0.80526728  0.90748452     0.03230
H273        H  0.33107918  0.79695745  0.81821843     0.08340
H274        H  0.41247592  0.79749206  0.93613552     0.07170
C275        C  0.24795407  0.02736849  0.73143933     0.00640
C276        C  0.24770323  0.99610788  0.76293140     0.00630
N277        N  0.17726069  0.93837553  0.80621628    -0.27220
N278        N  0.16690818  0.97035652  0.82584923    -0.35080
C279        C  0.18981405  0.99606317  0.81216290     0.01120
C280        C  0.21560986  0.97935886  0.78232163     0.07150
C281        C  0.20645300  0.94290685  0.77909462    -0.05950
H282        H  0.18829651  0.02461118  0.82429814     0.07810
H283        H  0.21972620  0.92086852  0.75871177     0.09010
Cu284      Cu  0.12262227  0.97678041  0.87169556     0.44170
Cu285      Cu  0.15517099  0.88810742  0.82159813     0.41990
Cu286      Cu  0.08840566  0.88807342  0.91672349     0.43880
N287        N  0.07807544  0.97052099  0.91686447    -0.34610
N288        N  0.06694847  0.93831167  0.93421981    -0.28860
C289        C  0.03773989  0.94280403  0.96125863    -0.04960
C290        C  0.02944752  0.97957085  0.96073829     0.07260
C291        C  0.05570758  0.99641335  0.93215553     0.01050
H292        H  0.02389283  0.92048420  0.97969005     0.08700
H293        H  0.05790967  0.02522302  0.92193225     0.07780
N294        N  0.10922828  0.83994606  0.88722438    -0.36050
N295        N  0.13418155  0.83991324  0.85074986    -0.28230
C296        C  0.14258459  0.80507028  0.83875827    -0.03470
C297        C  0.12169050  0.78210982  0.86915438     0.05140
C298        C  0.10081555  0.80515111  0.89940934     0.03230
H299        H  0.16244251  0.79712281  0.81023752     0.08340
H300        H  0.08101309  0.79729365  0.92809701     0.07170
N301        N  0.42724187  0.58553603  0.94076830    -0.27220
N302        N  0.41688347  0.55355406  0.92114416    -0.35080
C303        C  0.43978442  0.52784646  0.93483764     0.01120
C304        C  0.46558267  0.54455117  0.96467473     0.07150
C305        C  0.45643155  0.58100402  0.96789444    -0.05950
H306        H  0.43826322  0.49929784  0.92270621     0.07810
H307        H  0.46970800  0.60304355  0.98827103     0.09010
Cu308      Cu  0.37259814  0.54712787  0.87529673     0.44170
Cu309      Cu  0.40517695  0.63580833  0.92534598     0.41990
Cu310      Cu  0.33841318  0.63582959  0.83022103     0.43880
N311        N  0.32805095  0.55338576  0.83013063    -0.34610
N312        N  0.31693132  0.58559466  0.81276552    -0.28860
C313        C  0.28772088  0.58110361  0.78573082    -0.04960
C314        C  0.27942121  0.54433779  0.78626020     0.07260
C315        C  0.30567758  0.52749478  0.81484756     0.01050
H316        H  0.27387868  0.60342264  0.76729094     0.08700
H317        H  0.30787481  0.49868554  0.82507501     0.07780
N318        N  0.35926586  0.68396111  0.85965583    -0.36050
N319        N  0.38421851  0.68399886  0.89613058    -0.28230
C320        C  0.39263803  0.71884314  0.90808552    -0.03470
C321        C  0.37175509  0.74179975  0.87766571     0.05140
C322        C  0.35087009  0.71875465  0.84743393     0.03230
H323        H  0.41249586  0.72679404  0.93660497     0.08340
H324        H  0.33106842  0.72660860  0.81874471     0.07170
N325        N  0.42870643  0.43829396  0.56285106    -0.27220
N326        N  0.41754681  0.47051333  0.58010651    -0.35080
C327        C  0.43989907  0.49641009  0.56476854     0.01120
C328        C  0.46618329  0.47956027  0.53625414     0.07150
C329        C  0.45792425  0.44278204  0.53583932    -0.05950
H330        H  0.43767021  0.52522958  0.57491767     0.07810
H331        H  0.47180245  0.42045019  0.51750748     0.09010
Cu332      Cu  0.37298541  0.47677604  0.62523167     0.44170
Cu333      Cu  0.40726470  0.38805921  0.58042211     0.41990
Cu334      Cu  0.34049621  0.38812427  0.67554552     0.43880
N335        N  0.32871704  0.47036056  0.67112553    -0.34610
N336        N  0.31839549  0.43839522  0.69085960    -0.28860
C337        C  0.28921256  0.44293540  0.71800706    -0.04960
C338        C  0.28002480  0.47937155  0.71467078     0.07260
C339        C  0.30579719  0.49606281  0.68476152     0.01050
H340        H  0.27596497  0.42091550  0.73848397     0.08700
H341        H  0.30728876  0.52459649  0.67254643     0.07780
N342        N  0.36148166  0.33992031  0.64641553    -0.36050
N343        N  0.38643647  0.33994283  0.60994386    -0.28230
C344        C  0.39484956  0.30514484  0.59777714    -0.03470
C345        C  0.37397393  0.28211172  0.62804143     0.05140
C346        C  0.35307777  0.30508034  0.65842286     0.03230
H347        H  0.41465477  0.29727982  0.56909848     0.08340
H348        H  0.33322042  0.29714036  0.68694843     0.07170
N349        N  0.17723029  0.58522374  0.80834348    -0.27220
N350        N  0.16688062  0.55332246  0.82827247    -0.35080
C351        C  0.18979118  0.52756416  0.81482596     0.01120
C352        C  0.21558782  0.54416283  0.78485109     0.07150
C353        C  0.20642499  0.58059462  0.78127754    -0.05950
H354        H  0.18827373  0.49906105  0.82719885     0.07810
H355        H  0.21969290  0.60255175  0.76068036     0.09010
Cu356      Cu  0.12258798  0.54713475  0.87417041     0.44170
Cu357      Cu  0.15511971  0.63553425  0.82320775     0.41990
Cu358      Cu  0.08837125  0.63608020  0.91837774     0.43880
N359        N  0.07805244  0.55362285  0.91929421    -0.34610
N360        N  0.06693095  0.58589708  0.93638348    -0.28860
C361        C  0.03772654  0.58149847  0.96348169    -0.04960
C362        C  0.02943228  0.54472629  0.96327398     0.07260
C363        C  0.05568519  0.52778904  0.93480334     0.01050
H364        H  0.02387945  0.60388533  0.98172079     0.08700
H365        H  0.05788007  0.49894719  0.92478457     0.07780
N366        N  0.10920357  0.68405204  0.88826534    -0.36050
N367        N  0.13414939  0.68387581  0.85177706    -0.28230
C368        C  0.14256227  0.71864504  0.83932453    -0.03470
C369        C  0.12168297  0.74178257  0.86942681     0.05140
C370        C  0.10080498  0.71891932  0.89999678     0.03230
H371        H  0.16241482  0.72642296  0.81068469     0.08340
H372        H  0.08100881  0.72694673  0.92858694     0.07170
C373        C  0.49767658  0.52780236  0.98405437     0.00640
C374        C  0.49792564  0.49654212  0.51554707     0.00630
C375        C  0.24792459  0.49611459  0.73403126     0.00640
C376        C  0.24767401  0.52736298  0.76555981     0.00630
N377        N  0.06840606  0.43868381  0.55815649    -0.27260
N378        N  0.07872432  0.47056920  0.57820575    -0.35080
C379        C  0.05579355  0.49632193  0.56484488     0.01120
C380        C  0.03001644  0.47973935  0.53480227     0.07150
C381        C  0.03921290  0.44332309  0.53108869    -0.05950
H382        H  0.05728630  0.52481016  0.57731559     0.07810
H383        H  0.02596919  0.42138610  0.51038789     0.09010
Cu384      Cu  0.12300684  0.47677068  0.62412925     0.44170
Cu385      Cu  0.09054571  0.38836697  0.57287328     0.41990
Cu386      Cu  0.15732095  0.38783851  0.66798487     0.43880
N387        N  0.16755753  0.47030008  0.66921315    -0.34610
N388        N  0.17872324  0.43801385  0.68615092    -0.28860
C389        C  0.20793013  0.44240584  0.71324054    -0.04960
C390        C  0.21617684  0.47919118  0.71320659     0.07260
C391        C  0.18989630  0.49614017  0.68482486     0.01050
H392        H  0.22181402  0.42000290  0.73134443     0.08700
H393        H  0.18766554  0.52499526  0.67492837     0.07780
N394        N  0.13650849  0.33986451  0.63784610    -0.36050
N395        N  0.11155160  0.34002707  0.60138004    -0.28230
C396        C  0.10314905  0.30525118  0.58893370    -0.03470
C397        C  0.12404708  0.28212694  0.61901906     0.05140
C398        C  0.14492423  0.30500374  0.64956991     0.03230
H399        H  0.08328660  0.29745940  0.56032018     0.08340
H400        H  0.16472740  0.29699012  0.67815213     0.07170
N401        N  0.92874988  0.08590845  0.06078032    -0.27220
N402        N  0.91757459  0.05362311  0.07771210    -0.35080
C403        C  0.93991458  0.02778101  0.06212332     0.01120
C404        C  0.96620632  0.04472626  0.03376327     0.07150
C405        C  0.95796639  0.08151276  0.03371980    -0.05950
H406        H  0.93767590  0.99892640  0.07201982     0.07810
H407        H  0.97186114  0.10391333  0.01562656     0.09010
Cu408      Cu  0.87301419  0.04714370  0.12276850     0.44170
Cu409      Cu  0.90734028  0.13608757  0.07889885     0.41990
Cu410      Cu  0.84057321  0.13553062  0.17403496     0.43880
N411        N  0.82874292  0.05333323  0.16872503    -0.34610
N412        N  0.81843733  0.08521709  0.18879276    -0.28860
C413        C  0.78925320  0.08057911  0.21588973    -0.04960
C414        C  0.78004661  0.04416543  0.21217111     0.07260
C415        C  0.80581099  0.02758205  0.18209978     0.01050
H416        H  0.77602142  0.10251557  0.23661012     0.08700
H417        H  0.80729316  0.99909536  0.16961796     0.07780
N418        N  0.86154110  0.18387744  0.14547685    -0.36050
N419        N  0.88649382  0.18405364  0.10900180    -0.28230
C420        C  0.89488213  0.21891995  0.09725314    -0.03470
C421        C  0.87399114  0.24178438  0.12779795     0.05140
C422        C  0.85311383  0.21864790  0.15790402     0.03230
H423        H  0.91467887  0.22694579  0.06866426     0.08340
H424        H  0.83325135  0.22642742  0.18652464     0.07170
C425        C  0.99770006  0.99654715  0.48142821     0.00640
C426        C  0.99795310  0.02779595  0.01295600     0.00630
N427        N  0.67875499  0.08562746  0.18410284    -0.27220
N428        N  0.66757861  0.05340512  0.16688550    -0.35080
C429        C  0.68991926  0.02750488  0.18224738     0.01120
C430        C  0.71621322  0.04435455  0.21073923     0.07150
C431        C  0.70797188  0.08113728  0.21111407    -0.05950
H432        H  0.68767744  0.99868254  0.17212402     0.07810
H433        H  0.72186309  0.10347214  0.22941231     0.09010
Cu434      Cu  0.62301417  0.04713615  0.12176943     0.44170
Cu435      Cu  0.65734362  0.13586856  0.16647490     0.41990
Cu436      Cu  0.59056973  0.13576959  0.07136425     0.43880
N437        N  0.57874828  0.05354398  0.07586750    -0.34610
N438        N  0.56844037  0.08550559  0.05610413    -0.28860
C439        C  0.53925622  0.08096698  0.02895906    -0.04960
C440        C  0.53005439  0.04453550  0.03232471     0.07260
C441        C  0.55581903  0.02784504  0.06225042     0.01050
H442        H  0.52601810  0.10298356  0.00845976     0.08700
H443        H  0.55730016  0.99931443  0.07448504     0.07780
N444        N  0.61156750  0.18398297  0.10043578    -0.36050
N445        N  0.63652457  0.18397579  0.13690221    -0.28230
C446        C  0.64493322  0.21877953  0.14904592    -0.03470
C447        C  0.62405146  0.24179944  0.11877274     0.05140
C448        C  0.60315773  0.21881736  0.08840899     0.03230
H449        H  0.66473362  0.22665753  0.17772630     0.08340
H450        H  0.58329222  0.22674437  0.05989318     0.07170
N451        N  0.81696916  0.93801035  0.31052359    -0.27220
N452        N  0.82809168  0.97028203  0.32762859    -0.35080
C453        C  0.80571802  0.99611540  0.31215484     0.01120
C454        C  0.77945972  0.97918114  0.28369267     0.07150
C455        C  0.78775662  0.94241090  0.28345194    -0.05950
H456        H  0.80791338  0.02495504  0.32218972     0.07810
H457        H  0.77390636  0.92002747  0.26520472     0.09010
Cu458      Cu  0.87263429  0.97677506  0.37273331     0.44170
Cu459      Cu  0.83842155  0.88782602  0.32846600     0.41990
Cu460      Cu  0.90516365  0.88837894  0.42364888     0.43880
N461        N  0.91691878  0.97059340  0.41865365    -0.34610
N462        N  0.92726408  0.93868954  0.43857369    -0.28860
C463        C  0.95644977  0.94331712  0.46566710    -0.04960
C464        C  0.96561359  0.97975098  0.46211941     0.07260
C465        C  0.93982474  0.99635235  0.43213157     0.01050
H466        H  0.96971164  0.92135669  0.48626201     0.08700
H467        H  0.93831074  0.02485744  0.41976916     0.07780
N468        N  0.88421259  0.84003538  0.39503829    -0.36050
N469        N  0.85926967  0.83985602  0.35854532    -0.28230
C470        C  0.85087681  0.80498752  0.34680468    -0.03470
C471        C  0.87175519  0.78212698  0.37737443     0.05140
C472        C  0.89262933  0.80526728  0.40748451     0.03230
H473        H  0.83107919  0.79695744  0.31821841     0.08340
H474        H  0.91247592  0.79749206  0.43613551     0.07170
C475        C  0.74795407  0.02736849  0.23143934     0.00640
C476        C  0.74770323  0.99610788  0.26293140     0.00630
N477        N  0.67726069  0.93837553  0.30621628    -0.27220
N478        N  0.66690818  0.97035652  0.32584924    -0.35080
C479        C  0.68981405  0.99606317  0.31216290     0.01120
C480        C  0.71560986  0.97935886  0.28232163     0.07150
C481        C  0.70645300  0.94290685  0.27909462    -0.05950
H482        H  0.68829651  0.02461118  0.32429814     0.07810
H483        H  0.71972620  0.92086852  0.25871178     0.09010
Cu484      Cu  0.62262227  0.97678040  0.37169556     0.44170
Cu485      Cu  0.65517099  0.88810742  0.32159813     0.41990
Cu486      Cu  0.58840566  0.88807342  0.41672349     0.43880
N487        N  0.57807544  0.97052099  0.41686447    -0.34610
N488        N  0.56694847  0.93831167  0.43421981    -0.28860
C489        C  0.53773988  0.94280403  0.46125862    -0.04960
C490        C  0.52944752  0.97957085  0.46073829     0.07260
C491        C  0.55570758  0.99641335  0.43215553     0.01050
H492        H  0.52389283  0.92048420  0.47969005     0.08700
H493        H  0.55790967  0.02522302  0.42193225     0.07780
N494        N  0.60922828  0.83994606  0.38722438    -0.36050
N495        N  0.63418155  0.83991324  0.35074986    -0.28230
C496        C  0.64258459  0.80507028  0.33875828    -0.03470
C497        C  0.62169050  0.78210982  0.36915438     0.05140
C498        C  0.60081555  0.80515111  0.39940934     0.03230
H499        H  0.66244252  0.79712281  0.31023753     0.08340
H500        H  0.58101309  0.79729365  0.42809701     0.07170
N501        N  0.92724187  0.58553603  0.44076829    -0.27220
N502        N  0.91688347  0.55355406  0.42114415    -0.35080
C503        C  0.93978442  0.52784646  0.43483764     0.01120
C504        C  0.96558267  0.54455117  0.46467473     0.07150
C505        C  0.95643155  0.58100402  0.46789443    -0.05950
H506        H  0.93826323  0.49929783  0.42270621     0.07810
H507        H  0.96970800  0.60304355  0.48827102     0.09010
Cu508      Cu  0.87259815  0.54712787  0.37529672     0.44170
Cu509      Cu  0.90517695  0.63580833  0.42534597     0.41990
Cu510      Cu  0.83841319  0.63582959  0.33022100     0.43880
N511        N  0.82805096  0.55338576  0.33013061    -0.34610
N512        N  0.81693133  0.58559466  0.31276550    -0.28860
C513        C  0.78772088  0.58110360  0.28573080    -0.04960
C514        C  0.77942122  0.54433778  0.28626019     0.07260
C515        C  0.80567758  0.52749478  0.31484756     0.01050
H516        H  0.77387869  0.60342263  0.26729091     0.08700
H517        H  0.80787481  0.49868554  0.32507502     0.07780
N518        N  0.85926586  0.68396111  0.35965580    -0.36050
N519        N  0.88421851  0.68399886  0.39613055    -0.28230
C520        C  0.89263803  0.71884314  0.40808550    -0.03470
C521        C  0.87175510  0.74179975  0.37766568     0.05140
C522        C  0.85087009  0.71875464  0.34743390     0.03230
H523        H  0.91249586  0.72679404  0.43660496     0.08340
H524        H  0.83106843  0.72660860  0.31874468     0.07170
N525        N  0.92870643  0.43829396  0.06285107    -0.27220
N526        N  0.91754682  0.47051333  0.08010651    -0.35080
C527        C  0.93989907  0.49641009  0.06476855     0.01120
C528        C  0.96618329  0.47956027  0.03625414     0.07150
C529        C  0.95792425  0.44278204  0.03583933    -0.05950
H530        H  0.93767021  0.52522957  0.07491767     0.07810
H531        H  0.97180245  0.42045019  0.01750748     0.09010
Cu532      Cu  0.87298541  0.47677604  0.12523167     0.44170
Cu533      Cu  0.90726470  0.38805920  0.08042212     0.41990
Cu534      Cu  0.84049621  0.38812427  0.17554553     0.43880
N535        N  0.82871704  0.47036055  0.17112553    -0.34610
N536        N  0.81839549  0.43839521  0.19085960    -0.28860
C537        C  0.78921255  0.44293540  0.21800706    -0.04960
C538        C  0.78002480  0.47937155  0.21467077     0.07260
C539        C  0.80579719  0.49606280  0.18476152     0.01050
H540        H  0.77596497  0.42091549  0.23848396     0.08700
H541        H  0.80728876  0.52459649  0.17254643     0.07780
N542        N  0.86148167  0.33992031  0.14641554    -0.36050
N543        N  0.88643648  0.33994283  0.10994387    -0.28230
C544        C  0.89484956  0.30514484  0.09777715    -0.03470
C545        C  0.87397394  0.28211172  0.12804144     0.05140
C546        C  0.85307778  0.30508034  0.15842287     0.03230
H547        H  0.91465477  0.29727982  0.06909849     0.08340
H548        H  0.83322043  0.29714036  0.18694844     0.07170
N549        N  0.67723030  0.58522374  0.30834349    -0.27220
N550        N  0.66688062  0.55332245  0.32827247    -0.35080
C551        C  0.68979119  0.52756416  0.31482596     0.01120
C552        C  0.71558783  0.54416283  0.28485109     0.07150
C553        C  0.70642500  0.58059462  0.28127755    -0.05950
H554        H  0.68827373  0.49906105  0.32719884     0.07810
H555        H  0.71969291  0.60255175  0.26068038     0.09010
Cu556      Cu  0.62258798  0.54713475  0.37417042     0.44170
Cu557      Cu  0.65511972  0.63553425  0.32320777     0.41990
Cu558      Cu  0.58837126  0.63608020  0.41837775     0.43880
N559        N  0.57805244  0.55362285  0.41929421    -0.34610
N560        N  0.56693095  0.58589708  0.43638348    -0.28860
C561        C  0.53772655  0.58149847  0.46348170    -0.04960
C562        C  0.52943228  0.54472628  0.46327398     0.07260
C563        C  0.55568519  0.52778904  0.43480334     0.01050
H564        H  0.52387945  0.60388533  0.48172080     0.08700
H565        H  0.55788007  0.49894719  0.42478456     0.07780
N566        N  0.60920358  0.68405204  0.38826535    -0.36050
N567        N  0.63414939  0.68387581  0.35177707    -0.28230
C568        C  0.64256228  0.71864504  0.33932454    -0.03470
C569        C  0.62168297  0.74178257  0.36942681     0.05140
C570        C  0.60080498  0.71891932  0.39999679     0.03230
H571        H  0.66241482  0.72642296  0.31068470     0.08340
H572        H  0.58100881  0.72694673  0.42858694     0.07170
C573        C  0.99767659  0.52780236  0.48405436     0.00640
C574        C  0.99792564  0.49654211  0.01554707     0.00630
C575        C  0.74792459  0.49611458  0.23403125     0.00640
C576        C  0.74767402  0.52736298  0.26555981     0.00630
N577        N  0.56840606  0.43868380  0.05815649    -0.27260
N578        N  0.57872432  0.47056920  0.07820575    -0.35080
C579        C  0.55579355  0.49632193  0.06484488     0.01120
C580        C  0.53001644  0.47973935  0.03480227     0.07150
C581        C  0.53921290  0.44332309  0.03108869    -0.05950
H582        H  0.55728630  0.52481016  0.07731559     0.07810
H583        H  0.52596919  0.42138610  0.01038789     0.09010
Cu584      Cu  0.62300684  0.47677068  0.12412926     0.44170
Cu585      Cu  0.59054571  0.38836697  0.07287328     0.41990
Cu586      Cu  0.65732094  0.38783851  0.16798489     0.43880
N587        N  0.66755753  0.47030008  0.16921316    -0.34610
N588        N  0.67872324  0.43801385  0.18615093    -0.28860
C589        C  0.70793013  0.44240583  0.21324055    -0.04960
C590        C  0.71617684  0.47919118  0.21320660     0.07260
C591        C  0.68989630  0.49614017  0.18482486     0.01050
H592        H  0.72181402  0.42000290  0.23134444     0.08700
H593        H  0.68766554  0.52499526  0.17492837     0.07780
N594        N  0.63650848  0.33986451  0.13784611    -0.36050
N595        N  0.61155159  0.34002707  0.10138005    -0.28230
C596        C  0.60314905  0.30525118  0.08893372    -0.03470
C597        C  0.62404708  0.28212694  0.11901908     0.05140
C598        C  0.64492423  0.30500374  0.14956993     0.03230
H599        H  0.58328660  0.29745940  0.06032019     0.08340
H600        H  0.66472740  0.29699012  0.17815215     0.07170
N601        N  0.92874989  0.08590845  0.56078032    -0.27220
N602        N  0.91757459  0.05362312  0.57771210    -0.35080
C603        C  0.93991458  0.02778101  0.56212332     0.01120
C604        C  0.96620632  0.04472626  0.53376327     0.07150
C605        C  0.95796640  0.08151276  0.53371980    -0.05950
H606        H  0.93767589  0.99892640  0.57201981     0.07810
H607        H  0.97186114  0.10391334  0.51562656     0.09010
Cu608      Cu  0.87301419  0.04714371  0.62276849     0.44170
Cu609      Cu  0.90734028  0.13608757  0.57889885     0.41990
Cu610      Cu  0.84057321  0.13553063  0.67403495     0.43880
N611        N  0.82874291  0.05333323  0.66872503    -0.34610
N612        N  0.81843733  0.08521710  0.68879276    -0.28860
C613        C  0.78925320  0.08057911  0.71588973    -0.04960
C614        C  0.78004661  0.04416544  0.71217111     0.07260
C615        C  0.80581099  0.02758205  0.68209978     0.01050
H616        H  0.77602142  0.10251557  0.73661012     0.08700
H617        H  0.80729316  0.99909537  0.66961796     0.07780
N618        N  0.86154110  0.18387745  0.64547685    -0.36050
N619        N  0.88649382  0.18405364  0.60900180    -0.28230
C620        C  0.89488213  0.21891995  0.59725313    -0.03470
C621        C  0.87399114  0.24178439  0.62779795     0.05140
C622        C  0.85311383  0.21864790  0.65790401     0.03230
H623        H  0.91467887  0.22694579  0.56866426     0.08340
H624        H  0.83325135  0.22642743  0.68652463     0.07170
C625        C  0.99770006  0.99654716  0.98142821     0.00640
C626        C  0.99795309  0.02779595  0.51295600     0.00630
N627        N  0.67875499  0.08562746  0.68410284    -0.27220
N628        N  0.66757861  0.05340513  0.66688550    -0.35080
C629        C  0.68991926  0.02750488  0.68224738     0.01120
C630        C  0.71621322  0.04435455  0.71073923     0.07150
C631        C  0.70797188  0.08113728  0.71111407    -0.05950
H632        H  0.68767744  0.99868255  0.67212402     0.07810
H633        H  0.72186309  0.10347214  0.72941231     0.09010
Cu634      Cu  0.62301417  0.04713615  0.62176943     0.44170
Cu635      Cu  0.65734362  0.13586856  0.66647490     0.41990
Cu636      Cu  0.59056973  0.13576959  0.57136423     0.43880
N637        N  0.57874828  0.05354399  0.57586750    -0.34610
N638        N  0.56844038  0.08550559  0.55610411    -0.28860
C639        C  0.53925622  0.08096698  0.52895905    -0.04960
C640        C  0.53005439  0.04453550  0.53232470     0.07260
C641        C  0.55581903  0.02784504  0.56225042     0.01050
H642        H  0.52601810  0.10298355  0.50845974     0.08700
H643        H  0.55730016  0.99931443  0.57448504     0.07780
N644        N  0.61156750  0.18398297  0.60043576    -0.36050
N645        N  0.63652457  0.18397579  0.63690220    -0.28230
C646        C  0.64493322  0.21877953  0.64904591    -0.03470
C647        C  0.62405146  0.24179944  0.61877272     0.05140
C648        C  0.60315774  0.21881736  0.58840898     0.03230
H649        H  0.66473362  0.22665753  0.67772629     0.08340
H650        H  0.58329223  0.22674437  0.55989316     0.07170
N651        N  0.81696916  0.93801035  0.81052360    -0.27220
N652        N  0.82809168  0.97028203  0.82762859    -0.35080
C653        C  0.80571802  0.99611540  0.81215484     0.01120
C654        C  0.77945972  0.97918115  0.78369267     0.07150
C655        C  0.78775662  0.94241090  0.78345194    -0.05950
H656        H  0.80791339  0.02495505  0.82218971     0.07810
H657        H  0.77390635  0.92002747  0.76520473     0.09010
Cu658      Cu  0.87263429  0.97677507  0.87273331     0.44170
Cu659      Cu  0.83842155  0.88782602  0.82846601     0.41990
Cu660      Cu  0.90516365  0.88837894  0.92364888     0.43880
N661        N  0.91691879  0.97059340  0.91865365    -0.34610
N662        N  0.92726408  0.93868954  0.93857369    -0.28860
C663        C  0.95644977  0.94331712  0.96566710    -0.04960
C664        C  0.96561359  0.97975098  0.96211941     0.07260
C665        C  0.93982474  0.99635235  0.93213157     0.01050
H666        H  0.96971164  0.92135669  0.98626201     0.08700
H667        H  0.93831074  0.02485744  0.91976917     0.07780
N668        N  0.88421259  0.84003539  0.89503830    -0.36050
N669        N  0.85926967  0.83985602  0.85854532    -0.28230
C670        C  0.85087681  0.80498752  0.84680469    -0.03470
C671        C  0.87175519  0.78212698  0.87737444     0.05140
C672        C  0.89262933  0.80526728  0.90748452     0.03230
H673        H  0.83107918  0.79695745  0.81821842     0.08340
H674        H  0.91247592  0.79749206  0.93613552     0.07170
C675        C  0.74795407  0.02736849  0.73143934     0.00640
C676        C  0.74770323  0.99610788  0.76293140     0.00630
N677        N  0.67726069  0.93837553  0.80621628    -0.27220
N678        N  0.66690818  0.97035653  0.82584924    -0.35080
C679        C  0.68981405  0.99606317  0.81216290     0.01120
C680        C  0.71560986  0.97935886  0.78232163     0.07150
C681        C  0.70645300  0.94290686  0.77909462    -0.05950
H682        H  0.68829651  0.02461118  0.82429814     0.07810
H683        H  0.71972620  0.92086853  0.75871177     0.09010
Cu684      Cu  0.62262227  0.97678041  0.87169557     0.44170
Cu685      Cu  0.65517099  0.88810742  0.82159813     0.41990
Cu686      Cu  0.58840566  0.88807342  0.91672349     0.43880
N687        N  0.57807544  0.97052099  0.91686447    -0.34610
N688        N  0.56694847  0.93831167  0.93421981    -0.28860
C689        C  0.53773988  0.94280403  0.96125862    -0.04960
C690        C  0.52944752  0.97957085  0.96073829     0.07260
C691        C  0.55570758  0.99641335  0.93215553     0.01050
H692        H  0.52389283  0.92048420  0.97969005     0.08700
H693        H  0.55790967  0.02522302  0.92193225     0.07780
N694        N  0.60922828  0.83994606  0.88722438    -0.36050
N695        N  0.63418155  0.83991325  0.85074986    -0.28230
C696        C  0.64258459  0.80507028  0.83875828    -0.03470
C697        C  0.62169050  0.78210982  0.86915438     0.05140
C698        C  0.60081555  0.80515111  0.89940934     0.03230
H699        H  0.66244251  0.79712281  0.81023752     0.08340
H700        H  0.58101309  0.79729365  0.92809701     0.07170
N701        N  0.92724187  0.58553603  0.94076830    -0.27220
N702        N  0.91688346  0.55355406  0.92114416    -0.35080
C703        C  0.93978442  0.52784646  0.93483764     0.01120
C704        C  0.96558266  0.54455117  0.96467473     0.07150
C705        C  0.95643154  0.58100402  0.96789444    -0.05950
H706        H  0.93826322  0.49929784  0.92270620     0.07810
H707        H  0.96970799  0.60304355  0.98827104     0.09010
Cu708      Cu  0.87259814  0.54712787  0.87529673     0.44170
Cu709      Cu  0.90517694  0.63580833  0.92534599     0.41990
Cu710      Cu  0.83841318  0.63582960  0.83022103     0.43880
N711        N  0.82805095  0.55338576  0.83013062    -0.34610
N712        N  0.81693132  0.58559466  0.81276552    -0.28860
C713        C  0.78772087  0.58110361  0.78573081    -0.04960
C714        C  0.77942121  0.54433779  0.78626019     0.07260
C715        C  0.80567758  0.52749478  0.81484755     0.01050
H716        H  0.77387868  0.60342264  0.76729093     0.08700
H717        H  0.80787481  0.49868554  0.82507501     0.07780
N718        N  0.85926585  0.68396111  0.85965582    -0.36050
N719        N  0.88421850  0.68399886  0.89613058    -0.28230
C720        C  0.89263803  0.71884314  0.90808552    -0.03470
C721        C  0.87175509  0.74179975  0.87766570     0.05140
C722        C  0.85087009  0.71875465  0.84743393     0.03230
H723        H  0.91249586  0.72679404  0.93660498     0.08340
H724        H  0.83106842  0.72660860  0.81874470     0.07170
N725        N  0.92870643  0.43829396  0.56285107    -0.27220
N726        N  0.91754681  0.47051333  0.58010651    -0.35080
C727        C  0.93989907  0.49641009  0.56476855     0.01120
C728        C  0.96618329  0.47956027  0.53625414     0.07150
C729        C  0.95792425  0.44278204  0.53583933    -0.05950
H730        H  0.93767021  0.52522958  0.57491767     0.07810
H731        H  0.97180245  0.42045019  0.51750748     0.09010
Cu732      Cu  0.87298541  0.47677604  0.62523167     0.44170
Cu733      Cu  0.90726470  0.38805921  0.58042212     0.41990
Cu734      Cu  0.84049620  0.38812427  0.67554552     0.43880
N735        N  0.82871704  0.47036056  0.67112552    -0.34610
N736        N  0.81839549  0.43839522  0.69085960    -0.28860
C737        C  0.78921255  0.44293541  0.71800705    -0.04960
C738        C  0.78002480  0.47937155  0.71467077     0.07260
C739        C  0.80579719  0.49606281  0.68476152     0.01050
H740        H  0.77596497  0.42091550  0.73848395     0.08700
H741        H  0.80728876  0.52459649  0.67254643     0.07780
N742        N  0.86148166  0.33992031  0.64641553    -0.36050
N743        N  0.88643647  0.33994283  0.60994386    -0.28230
C744        C  0.89484956  0.30514484  0.59777714    -0.03470
C745        C  0.87397393  0.28211172  0.62804143     0.05140
C746        C  0.85307777  0.30508034  0.65842286     0.03230
H747        H  0.91465477  0.29727982  0.56909848     0.08340
H748        H  0.83322043  0.29714036  0.68694842     0.07170
N749        N  0.67723029  0.58522375  0.80834347    -0.27220
N750        N  0.66688062  0.55332246  0.82827246    -0.35080
C751        C  0.68979118  0.52756416  0.81482596     0.01120
C752        C  0.71558782  0.54416283  0.78485108     0.07150
C753        C  0.70642499  0.58059462  0.78127754    -0.05950
H754        H  0.68827372  0.49906105  0.82719885     0.07810
H755        H  0.71969290  0.60255176  0.76068035     0.09010
Cu756      Cu  0.62258798  0.54713475  0.87417042     0.44170
Cu757      Cu  0.65511971  0.63553425  0.82320775     0.41990
Cu758      Cu  0.58837126  0.63608020  0.91837775     0.43880
N759        N  0.57805244  0.55362285  0.91929421    -0.34610
N760        N  0.56693095  0.58589708  0.93638349    -0.28860
C761        C  0.53772655  0.58149847  0.96348171    -0.04960
C762        C  0.52943228  0.54472629  0.96327399     0.07260
C763        C  0.55568519  0.52778904  0.93480334     0.01050
H764        H  0.52387945  0.60388533  0.98172081     0.08700
H765        H  0.55788007  0.49894720  0.92478457     0.07780
N766        N  0.60920357  0.68405205  0.88826535    -0.36050
N767        N  0.63414939  0.68387581  0.85177706    -0.28230
C768        C  0.64256228  0.71864504  0.83932453    -0.03470
C769        C  0.62168297  0.74178257  0.86942681     0.05140
C770        C  0.60080498  0.71891932  0.89999679     0.03230
H771        H  0.66241482  0.72642296  0.81068469     0.08340
H772        H  0.58100882  0.72694674  0.92858695     0.07170
C773        C  0.99767658  0.52780236  0.98405436     0.00640
C774        C  0.99792564  0.49654212  0.51554708     0.00630
C775        C  0.74792459  0.49611459  0.73403125     0.00640
C776        C  0.74767401  0.52736298  0.76555980     0.00630
N777        N  0.56840606  0.43868381  0.55815649    -0.27260
N778        N  0.57872432  0.47056920  0.57820575    -0.35080
C779        C  0.55579355  0.49632193  0.56484487     0.01120
C780        C  0.53001644  0.47973935  0.53480226     0.07150
C781        C  0.53921290  0.44332309  0.53108869    -0.05950
H782        H  0.55728630  0.52481016  0.57731559     0.07810
H783        H  0.52596918  0.42138610  0.51038789     0.09010
Cu784      Cu  0.62300684  0.47677068  0.62412925     0.44170
Cu785      Cu  0.59054571  0.38836697  0.57287328     0.41990
Cu786      Cu  0.65732094  0.38783852  0.66798488     0.43880
N787        N  0.66755753  0.47030008  0.66921315    -0.34610
N788        N  0.67872323  0.43801385  0.68615092    -0.28860
C789        C  0.70793013  0.44240584  0.71324054    -0.04960
C790        C  0.71617684  0.47919118  0.71320659     0.07260
C791        C  0.68989630  0.49614017  0.68482486     0.01050
H792        H  0.72181402  0.42000290  0.73134444     0.08700
H793        H  0.68766554  0.52499527  0.67492836     0.07780
N794        N  0.63650848  0.33986451  0.63784610    -0.36050
N795        N  0.61155160  0.34002707  0.60138004    -0.28230
C796        C  0.60314905  0.30525118  0.58893371    -0.03470
C797        C  0.62404708  0.28212694  0.61901907     0.05140
C798        C  0.64492423  0.30500374  0.64956992     0.03230
H799        H  0.58328660  0.29745940  0.56032018     0.08340
H800        H  0.66472740  0.29699012  0.67815214     0.07170
loop_ 
_geom_bond_atom_site_label_1 
_geom_bond_atom_site_label_2 
_geom_bond_distance 
_geom_bond_site_symmetry_2 
_ccdc_geom_bond_type 
N1            N2   1.322       .  A
N1            C5   1.339       .  A
N1           Cu9   2.065       .  S
N2            C3   1.348       .  A
N2           Cu8   2.087       .  S
C3            C4   1.391       .  A
C3            H6   1.082   1_545  S
C4            C5   1.382       .  A
C4           C26   1.492       .  S
C5            H7   1.077       .  S
Cu8          N11   2.087       .  S
Cu9          N19   2.065       .  S
Cu10         N12   2.066       .  S
Cu10         N18   2.066       .  S
N11          N12   1.323       .  A
N11          C15   1.348       .  A
N12          C13   1.340       .  A
C13          C14   1.381       .  A
C13          H16   1.077       .  S
C14          C15   1.389       .  A
C14          C75   1.490       .  S
C15          H17   1.082   1_545  S
N18          N19   1.319       .  A
N18          C22   1.345       .  A
N19          C20   1.345       .  A
C20          C21   1.384       .  A
C20          H23   1.081       .  S
C21          C22   1.384       .  A
C21         C145   1.471       .  S
C22          H24   1.081       .  S
C25          C64   1.490       .  S
C25         C490   1.492       .  S
C25         C226   1.364   1_565  D
C26         C440   1.490       .  S
C26         C225   1.364   1_544  D
N27          N28   1.322       .  A
N27          C31   1.339       .  A
N27         Cu35   2.065       .  S
N28          C29   1.349       .  A
N28         Cu34   2.087       .  S
C29          C30   1.391       .  A
C29          H32   1.082   1_545  S
C30          C31   1.382       .  A
C30          C75   1.492       .  S
C31          H33   1.077       .  S
Cu34         N37   2.087       .  S
Cu35         N45   2.065       .  S
Cu36         N38   2.067       .  S
Cu36         N44   2.067       .  S
N37          N38   1.323       .  A
N37          C41   1.348       .  A
N38          C39   1.340       .  A
C39          C40   1.381       .  A
C39          H42   1.077       .  S
C40          C41   1.389       .  A
C40         C426   1.490   1_455  S
C41          H43   1.082   1_545  S
N44          N45   1.319       .  A
N44          C48   1.345       .  A
N45          C46   1.345       .  A
C46          C47   1.384       .  A
C46          H49   1.081       .  S
C47          C48   1.384       .  A
C47         C197   1.471       .  S
C48          H50   1.081       .  S
N51          N52   1.322       .  A
N51          C55   1.339       .  A
N51         Cu59   2.065       .  S
N52          C53   1.348       .  A
N52         Cu58   2.087       .  S
C53          C54   1.390       .  A
C53          H56   1.082   1_565  S
C54          C55   1.382       .  A
C54          C76   1.492       .  S
C55          H57   1.077       .  S
Cu58         N61   2.087       .  S
Cu59         N69   2.065       .  S
Cu60         N62   2.066       .  S
Cu60         N68   2.066       .  S
N61          N62   1.322       .  A
N61          C65   1.348       .  A
N62          C63   1.340       .  A
C63          C64   1.381       .  A
C63          H66   1.077       .  S
C64          C65   1.389       .  A
C65          H67   1.082   1_565  S
N68          N69   1.319       .  A
N68          C72   1.345       .  A
N69          C70   1.345       .  A
C70          C71   1.384       .  A
C70          H73   1.081       .  S
C71          C72   1.384       .  A
C71         C121   1.471       .  S
C72          H74   1.081       .  S
C75          C76   1.364   1_545  D
C76          C80   1.490       .  S
N77          N78   1.323       .  A
N77          C81   1.340       .  A
N77         Cu85   2.067       .  S
N78          C79   1.348       .  A
N78         Cu84   2.087       .  S
C79          C80   1.389       .  A
C79          H82   1.082   1_565  S
C80          C81   1.381       .  A
C81          H83   1.077       .  S
Cu84         N87   2.087       .  S
Cu85         N95   2.067       .  S
Cu86         N88   2.065       .  S
Cu86         N94   2.065       .  S
N87          N88   1.322       .  A
N87          C91   1.349       .  A
N88          C89   1.339       .  A
C89          C90   1.382       .  A
C89          H92   1.077       .  S
C90          C91   1.390       .  A
C90         C425   1.492   1_455  S
C91          H93   1.082   1_565  S
N94          N95   1.319       .  A
N94          C98   1.345       .  A
N95          C96   1.345       .  A
C96          C97   1.384       .  A
C96          H99   1.081       .  S
C97          C98   1.384       .  A
C97         C169   1.471       .  S
C98         H100   1.081       .  S
N101        N102   1.323       .  A
N101        C105   1.340       .  A
N101       Cu109   2.067       .  S
N102        C103   1.348       .  A
N102       Cu108   2.087       .  S
C103        C104   1.389       .  A
C103        H106   1.082       .  S
C104        C105   1.381       .  A
C104        C173   1.490       .  S
C105        H107   1.077       .  S
Cu108       N111   2.087       .  S
Cu109       N119   2.067       .  S
Cu110       N112   2.065       .  S
Cu110       N118   2.065       .  S
N111        N112   1.322       .  A
N111        C115   1.349       .  A
N112        C113   1.339       .  A
C113        C114   1.382       .  A
C113        H116   1.077       .  S
C114        C115   1.390       .  A
C114        C176   1.492       .  S
C115        H117   1.082       .  S
N118        N119   1.319       .  A
N118        C122   1.345       .  A
N119        C120   1.345       .  A
C120        C121   1.384       .  A
C120        H123   1.081       .  S
C121        C122   1.384       .  A
C122        H124   1.081       .  S
N125        N126   1.322       .  A
N125        C129   1.339       .  A
N125       Cu133   2.065       .  S
N126        C127   1.349       .  A
N126       Cu132   2.087       .  S
C127        C128   1.391       .  A
C127        H130   1.082       .  S
C128        C129   1.382       .  A
C128        C174   1.492       .  S
C129        H131   1.077       .  S
Cu132       N135   2.087       .  S
Cu133       N143   2.065       .  S
Cu134       N136   2.067       .  S
Cu134       N142   2.067       .  S
N135        N136   1.323       .  A
N135        C139   1.348       .  A
N136        C137   1.340       .  A
C137        C138   1.381       .  A
C137        H140   1.077       .  S
C138        C139   1.389       .  A
C138        C175   1.490       .  S
C139        H141   1.082       .  S
N142        N143   1.319       .  A
N142        C146   1.345       .  A
N143        C144   1.344       .  A
C144        C145   1.384       .  A
C144        H147   1.081       .  S
C145        C146   1.384       .  A
C146        H148   1.081       .  S
N149        N150   1.322       .  A
N149        C153   1.340       .  A
N149       Cu157   2.066       .  S
N150        C151   1.348       .  A
N150       Cu156   2.087       .  S
C151        C152   1.389       .  A
C151        H154   1.082       .  S
C152        C153   1.381       .  A
C152        C176   1.490       .  S
C153        H155   1.077       .  S
Cu156       N159   2.087       .  S
Cu157       N167   2.066       .  S
Cu158       N160   2.065       .  S
Cu158       N166   2.065       .  S
N159        N160   1.322       .  A
N159        C163   1.348       .  A
N160        C161   1.339       .  A
C161        C162   1.382       .  A
C161        H164   1.077       .  S
C162        C163   1.390       .  A
C162        C573   1.492   1_455  S
C163        H165   1.082       .  S
N166        N167   1.319       .  A
N166        C170   1.345       .  A
N167        C168   1.345       .  A
C168        C169   1.384       .  A
C168        H171   1.081       .  S
C169        C170   1.384       .  A
C170        H172   1.081       .  S
C173        C562   1.492       .  S
C173        C374   1.364       .  D
C174        C580   1.490       .  S
C174        C373   1.364   1_554  D
C175        C190   1.492       .  S
C175        C176   1.364       .  D
N177        N178   1.323       .  A
N177        C181   1.340       .  A
N177       Cu185   2.067       .  S
N178        C179   1.348       .  A
N178       Cu184   2.087       .  S
C179        C180   1.389       .  A
C179        H182   1.082       .  S
C180        C181   1.381       .  A
C180        C574   1.490   1_455  S
C181        H183   1.077       .  S
Cu184       N187   2.087       .  S
Cu185       N195   2.066       .  S
Cu186       N188   2.065       .  S
Cu186       N194   2.065       .  S
N187        N188   1.322       .  A
N187        C191   1.348       .  A
N188        C189   1.339       .  A
C189        C190   1.382       .  A
C189        H192   1.077       .  S
C190        C191   1.391       .  A
C191        H193   1.082       .  S
N194        N195   1.319       .  A
N194        C198   1.345       .  A
N195        C196   1.345       .  A
C196        C197   1.384       .  A
C196        H199   1.081       .  S
C197        C198   1.384       .  A
C198        H200   1.081       .  S
N201        N202   1.322       .  A
N201        C205   1.339       .  A
N201       Cu209   2.065       .  S
N202        C203   1.348       .  A
N202       Cu208   2.087       .  S
C203        C204   1.391       .  A
C203        H206   1.082   1_545  S
C204        C205   1.382       .  A
C204        C226   1.492       .  S
C205        H207   1.077       .  S
Cu208       N211   2.087       .  S
Cu209       N219   2.065       .  S
Cu210       N212   2.066       .  S
Cu210       N218   2.066       .  S
N211        N212   1.323       .  A
N211        C215   1.348       .  A
N212        C213   1.340       .  A
C213        C214   1.381       .  A
C213        H216   1.077       .  S
C214        C215   1.389       .  A
C214        C275   1.490       .  S
C215        H217   1.082   1_545  S
N218        N219   1.319       .  A
N218        C222   1.345       .  A
N219        C220   1.345       .  A
C220        C221   1.384       .  A
C220        H223   1.081       .  S
C221        C222   1.384       .  A
C221        C345   1.471       .  S
C222        H224   1.081       .  S
C225        C264   1.490       .  S
C225        C690   1.492       .  S
C226        C640   1.490       .  S
N227        N228   1.322       .  A
N227        C231   1.339       .  A
N227       Cu235   2.065       .  S
N228        C229   1.349       .  A
N228       Cu234   2.087       .  S
C229        C230   1.391       .  A
C229        H232   1.082   1_545  S
C230        C231   1.382       .  A
C230        C275   1.492       .  S
C231        H233   1.077       .  S
Cu234       N237   2.087       .  S
Cu235       N245   2.065       .  S
Cu236       N238   2.067       .  S
Cu236       N244   2.067       .  S
N237        N238   1.323       .  A
N237        C241   1.348       .  A
N238        C239   1.340       .  A
C239        C240   1.381       .  A
C239        H242   1.077       .  S
C240        C241   1.389       .  A
C240        C626   1.490   1_455  S
C241        H243   1.082   1_545  S
N244        N245   1.319       .  A
N244        C248   1.345       .  A
N245        C246   1.345       .  A
C246        C247   1.384       .  A
C246        H249   1.081       .  S
C247        C248   1.384       .  A
C247        C397   1.471       .  S
C248        H250   1.081       .  S
N251        N252   1.322       .  A
N251        C255   1.339       .  A
N251       Cu259   2.065       .  S
N252        C253   1.348       .  A
N252       Cu258   2.087       .  S
C253        C254   1.390       .  A
C253        H256   1.082   1_565  S
C254        C255   1.382       .  A
C254        C276   1.492       .  S
C255        H257   1.077       .  S
Cu258       N261   2.087       .  S
Cu259       N269   2.065       .  S
Cu260       N262   2.066       .  S
Cu260       N268   2.066       .  S
N261        N262   1.322       .  A
N261        C265   1.348       .  A
N262        C263   1.340       .  A
C263        C264   1.381       .  A
C263        H266   1.077       .  S
C264        C265   1.389       .  A
C265        H267   1.082   1_565  S
N268        N269   1.319       .  A
N268        C272   1.345       .  A
N269        C270   1.345       .  A
C270        C271   1.384       .  A
C270        H273   1.081       .  S
C271        C272   1.384       .  A
C271        C321   1.471       .  S
C272        H274   1.081       .  S
C275        C276   1.364   1_545  D
C276        C280   1.490       .  S
N277        N278   1.323       .  A
N277        C281   1.340       .  A
N277       Cu285   2.067       .  S
N278        C279   1.348       .  A
N278       Cu284   2.087       .  S
C279        C280   1.389       .  A
C279        H282   1.082   1_565  S
C280        C281   1.381       .  A
C281        H283   1.077       .  S
Cu284       N287   2.087       .  S
Cu285       N295   2.067       .  S
Cu286       N288   2.065       .  S
Cu286       N294   2.065       .  S
N287        N288   1.322       .  A
N287        C291   1.349       .  A
N288        C289   1.339       .  A
C289        C290   1.382       .  A
C289        H292   1.077       .  S
C290        C291   1.390       .  A
C290        C625   1.492   1_455  S
C291        H293   1.082   1_565  S
N294        N295   1.319       .  A
N294        C298   1.345       .  A
N295        C296   1.345       .  A
C296        C297   1.384       .  A
C296        H299   1.081       .  S
C297        C298   1.384       .  A
C297        C369   1.471       .  S
C298        H300   1.081       .  S
N301        N302   1.323       .  A
N301        C305   1.340       .  A
N301       Cu309   2.067       .  S
N302        C303   1.348       .  A
N302       Cu308   2.087       .  S
C303        C304   1.389       .  A
C303        H306   1.082       .  S
C304        C305   1.381       .  A
C304        C373   1.490       .  S
C305        H307   1.077       .  S
Cu308       N311   2.087       .  S
Cu309       N319   2.067       .  S
Cu310       N312   2.065       .  S
Cu310       N318   2.065       .  S
N311        N312   1.322       .  A
N311        C315   1.349       .  A
N312        C313   1.339       .  A
C313        C314   1.382       .  A
C313        H316   1.077       .  S
C314        C315   1.390       .  A
C314        C376   1.492       .  S
C315        H317   1.082       .  S
N318        N319   1.319       .  A
N318        C322   1.345       .  A
N319        C320   1.345       .  A
C320        C321   1.384       .  A
C320        H323   1.081       .  S
C321        C322   1.384       .  A
C322        H324   1.081       .  S
N325        N326   1.322       .  A
N325        C329   1.339       .  A
N325       Cu333   2.065       .  S
N326        C327   1.349       .  A
N326       Cu332   2.087       .  S
C327        C328   1.391       .  A
C327        H330   1.082       .  S
C328        C329   1.382       .  A
C328        C374   1.492       .  S
C329        H331   1.077       .  S
Cu332       N335   2.087       .  S
Cu333       N343   2.065       .  S
Cu334       N336   2.067       .  S
Cu334       N342   2.067       .  S
N335        N336   1.323       .  A
N335        C339   1.348       .  A
N336        C337   1.340       .  A
C337        C338   1.381       .  A
C337        H340   1.077       .  S
C338        C339   1.389       .  A
C338        C375   1.490       .  S
C339        H341   1.082       .  S
N342        N343   1.319       .  A
N342        C346   1.345       .  A
N343        C344   1.344       .  A
C344        C345   1.384       .  A
C344        H347   1.081       .  S
C345        C346   1.384       .  A
C346        H348   1.081       .  S
N349        N350   1.322       .  A
N349        C353   1.340       .  A
N349       Cu357   2.066       .  S
N350        C351   1.348       .  A
N350       Cu356   2.087       .  S
C351        C352   1.389       .  A
C351        H354   1.082       .  S
C352        C353   1.381       .  A
C352        C376   1.490       .  S
C353        H355   1.077       .  S
Cu356       N359   2.087       .  S
Cu357       N367   2.066       .  S
Cu358       N360   2.065       .  S
Cu358       N366   2.065       .  S
N359        N360   1.322       .  A
N359        C363   1.348       .  A
N360        C361   1.339       .  A
C361        C362   1.382       .  A
C361        H364   1.077       .  S
C362        C363   1.390       .  A
C362        C773   1.492   1_455  S
C363        H365   1.082       .  S
N366        N367   1.319       .  A
N366        C370   1.345       .  A
N367        C368   1.345       .  A
C368        C369   1.384       .  A
C368        H371   1.081       .  S
C369        C370   1.384       .  A
C370        H372   1.081       .  S
C373        C762   1.492       .  S
C374        C780   1.490       .  S
C375        C390   1.492       .  S
C375        C376   1.364       .  D
N377        N378   1.323       .  A
N377        C381   1.340       .  A
N377       Cu385   2.067       .  S
N378        C379   1.348       .  A
N378       Cu384   2.087       .  S
C379        C380   1.389       .  A
C379        H382   1.082       .  S
C380        C381   1.381       .  A
C380        C774   1.490   1_455  S
C381        H383   1.077       .  S
Cu384       N387   2.087       .  S
Cu385       N395   2.066       .  S
Cu386       N388   2.065       .  S
Cu386       N394   2.065       .  S
N387        N388   1.322       .  A
N387        C391   1.348       .  A
N388        C389   1.339       .  A
C389        C390   1.382       .  A
C389        H392   1.077       .  S
C390        C391   1.391       .  A
C391        H393   1.082       .  S
N394        N395   1.319       .  A
N394        C398   1.345       .  A
N395        C396   1.345       .  A
C396        C397   1.384       .  A
C396        H399   1.081       .  S
C397        C398   1.384       .  A
C398        H400   1.081       .  S
N401        N402   1.322       .  A
N401        C405   1.339       .  A
N401       Cu409   2.065       .  S
N402        C403   1.348       .  A
N402       Cu408   2.087       .  S
C403        C404   1.391       .  A
C403        H406   1.082   1_545  S
C404        C405   1.382       .  A
C404        C426   1.492       .  S
C405        H407   1.077       .  S
Cu408       N411   2.087       .  S
Cu409       N419   2.065       .  S
Cu410       N412   2.066       .  S
Cu410       N418   2.066       .  S
N411        N412   1.323       .  A
N411        C415   1.348       .  A
N412        C413   1.340       .  A
C413        C414   1.381       .  A
C413        H416   1.077       .  S
C414        C415   1.389       .  A
C414        C475   1.490       .  S
C415        H417   1.082   1_545  S
N418        N419   1.319       .  A
N418        C422   1.345       .  A
N419        C420   1.345       .  A
C420        C421   1.384       .  A
C420        H423   1.081       .  S
C421        C422   1.384       .  A
C421        C545   1.471       .  S
C422        H424   1.081       .  S
C425        C464   1.490       .  S
C425        C626   1.364   1_565  D
C426        C625   1.364   1_544  D
N427        N428   1.322       .  A
N427        C431   1.339       .  A
N427       Cu435   2.065       .  S
N428        C429   1.349       .  A
N428       Cu434   2.087       .  S
C429        C430   1.391       .  A
C429        H432   1.082   1_545  S
C430        C431   1.382       .  A
C430        C475   1.492       .  S
C431        H433   1.077       .  S
Cu434       N437   2.087       .  S
Cu435       N445   2.065       .  S
Cu436       N438   2.067       .  S
Cu436       N444   2.067       .  S
N437        N438   1.323       .  A
N437        C441   1.348       .  A
N438        C439   1.340       .  A
C439        C440   1.381       .  A
C439        H442   1.077       .  S
C440        C441   1.389       .  A
C441        H443   1.082   1_545  S
N444        N445   1.319       .  A
N444        C448   1.345       .  A
N445        C446   1.345       .  A
C446        C447   1.384       .  A
C446        H449   1.081       .  S
C447        C448   1.384       .  A
C447        C597   1.471       .  S
C448        H450   1.081       .  S
N451        N452   1.322       .  A
N451        C455   1.339       .  A
N451       Cu459   2.065       .  S
N452        C453   1.348       .  A
N452       Cu458   2.087       .  S
C453        C454   1.390       .  A
C453        H456   1.082   1_565  S
C454        C455   1.382       .  A
C454        C476   1.492       .  S
C455        H457   1.077       .  S
Cu458       N461   2.087       .  S
Cu459       N469   2.065       .  S
Cu460       N462   2.066       .  S
Cu460       N468   2.066       .  S
N461        N462   1.322       .  A
N461        C465   1.348       .  A
N462        C463   1.340       .  A
C463        C464   1.381       .  A
C463        H466   1.077       .  S
C464        C465   1.389       .  A
C465        H467   1.082   1_565  S
N468        N469   1.319       .  A
N468        C472   1.345       .  A
N469        C470   1.345       .  A
C470        C471   1.384       .  A
C470        H473   1.081       .  S
C471        C472   1.384       .  A
C471        C521   1.471       .  S
C472        H474   1.081       .  S
C475        C476   1.364   1_545  D
C476        C480   1.490       .  S
N477        N478   1.323       .  A
N477        C481   1.340       .  A
N477       Cu485   2.067       .  S
N478        C479   1.348       .  A
N478       Cu484   2.087       .  S
C479        C480   1.389       .  A
C479        H482   1.082   1_565  S
C480        C481   1.381       .  A
C481        H483   1.077       .  S
Cu484       N487   2.087       .  S
Cu485       N495   2.067       .  S
Cu486       N488   2.065       .  S
Cu486       N494   2.065       .  S
N487        N488   1.322       .  A
N487        C491   1.349       .  A
N488        C489   1.339       .  A
C489        C490   1.382       .  A
C489        H492   1.077       .  S
C490        C491   1.390       .  A
C491        H493   1.082   1_565  S
N494        N495   1.319       .  A
N494        C498   1.345       .  A
N495        C496   1.345       .  A
C496        C497   1.384       .  A
C496        H499   1.081       .  S
C497        C498   1.384       .  A
C497        C569   1.471       .  S
C498        H500   1.081       .  S
N501        N502   1.323       .  A
N501        C505   1.340       .  A
N501       Cu509   2.067       .  S
N502        C503   1.348       .  A
N502       Cu508   2.087       .  S
C503        C504   1.389       .  A
C503        H506   1.082       .  S
C504        C505   1.381       .  A
C504        C573   1.490       .  S
C505        H507   1.077       .  S
Cu508       N511   2.087       .  S
Cu509       N519   2.067       .  S
Cu510       N512   2.065       .  S
Cu510       N518   2.065       .  S
N511        N512   1.322       .  A
N511        C515   1.349       .  A
N512        C513   1.339       .  A
C513        C514   1.382       .  A
C513        H516   1.077       .  S
C514        C515   1.390       .  A
C514        C576   1.492       .  S
C515        H517   1.082       .  S
N518        N519   1.319       .  A
N518        C522   1.345       .  A
N519        C520   1.345       .  A
C520        C521   1.384       .  A
C520        H523   1.081       .  S
C521        C522   1.384       .  A
C522        H524   1.081       .  S
N525        N526   1.322       .  A
N525        C529   1.339       .  A
N525       Cu533   2.065       .  S
N526        C527   1.349       .  A
N526       Cu532   2.087       .  S
C527        C528   1.391       .  A
C527        H530   1.082       .  S
C528        C529   1.382       .  A
C528        C574   1.492       .  S
C529        H531   1.077       .  S
Cu532       N535   2.087       .  S
Cu533       N543   2.065       .  S
Cu534       N536   2.067       .  S
Cu534       N542   2.067       .  S
N535        N536   1.323       .  A
N535        C539   1.348       .  A
N536        C537   1.340       .  A
C537        C538   1.381       .  A
C537        H540   1.077       .  S
C538        C539   1.389       .  A
C538        C575   1.490       .  S
C539        H541   1.082       .  S
N542        N543   1.319       .  A
N542        C546   1.345       .  A
N543        C544   1.344       .  A
C544        C545   1.384       .  A
C544        H547   1.081       .  S
C545        C546   1.384       .  A
C546        H548   1.081       .  S
N549        N550   1.322       .  A
N549        C553   1.340       .  A
N549       Cu557   2.066       .  S
N550        C551   1.348       .  A
N550       Cu556   2.087       .  S
C551        C552   1.389       .  A
C551        H554   1.082       .  S
C552        C553   1.381       .  A
C552        C576   1.490       .  S
C553        H555   1.077       .  S
Cu556       N559   2.087       .  S
Cu557       N567   2.066       .  S
Cu558       N560   2.065       .  S
Cu558       N566   2.065       .  S
N559        N560   1.322       .  A
N559        C563   1.348       .  A
N560        C561   1.339       .  A
C561        C562   1.382       .  A
C561        H564   1.077       .  S
C562        C563   1.390       .  A
C563        H565   1.082       .  S
N566        N567   1.319       .  A
N566        C570   1.345       .  A
N567        C568   1.345       .  A
C568        C569   1.384       .  A
C568        H571   1.081       .  S
C569        C570   1.384       .  A
C570        H572   1.081       .  S
C573        C774   1.364       .  D
C574        C773   1.364   1_554  D
C575        C590   1.492       .  S
C575        C576   1.364       .  D
N577        N578   1.323       .  A
N577        C581   1.340       .  A
N577       Cu585   2.067       .  S
N578        C579   1.348       .  A
N578       Cu584   2.087       .  S
C579        C580   1.389       .  A
C579        H582   1.082       .  S
C580        C581   1.381       .  A
C581        H583   1.077       .  S
Cu584       N587   2.087       .  S
Cu585       N595   2.066       .  S
Cu586       N588   2.065       .  S
Cu586       N594   2.065       .  S
N587        N588   1.322       .  A
N587        C591   1.348       .  A
N588        C589   1.339       .  A
C589        C590   1.382       .  A
C589        H592   1.077       .  S
C590        C591   1.391       .  A
C591        H593   1.082       .  S
N594        N595   1.319       .  A
N594        C598   1.345       .  A
N595        C596   1.345       .  A
C596        C597   1.384       .  A
C596        H599   1.081       .  S
C597        C598   1.384       .  A
C598        H600   1.081       .  S
N601        N602   1.322       .  A
N601        C605   1.339       .  A
N601       Cu609   2.065       .  S
N602        C603   1.348       .  A
N602       Cu608   2.087       .  S
C603        C604   1.391       .  A
C603        H606   1.082   1_545  S
C604        C605   1.382       .  A
C604        C626   1.492       .  S
C605        H607   1.077       .  S
Cu608       N611   2.087       .  S
Cu609       N619   2.065       .  S
Cu610       N612   2.066       .  S
Cu610       N618   2.066       .  S
N611        N612   1.323       .  A
N611        C615   1.348       .  A
N612        C613   1.340       .  A
C613        C614   1.381       .  A
C613        H616   1.077       .  S
C614        C615   1.389       .  A
C614        C675   1.490       .  S
C615        H617   1.082   1_545  S
N618        N619   1.319       .  A
N618        C622   1.345       .  A
N619        C620   1.345       .  A
C620        C621   1.384       .  A
C620        H623   1.081       .  S
C621        C622   1.384       .  A
C621        C745   1.471       .  S
C622        H624   1.081       .  S
C625        C664   1.490       .  S
N627        N628   1.322       .  A
N627        C631   1.339       .  A
N627       Cu635   2.065       .  S
N628        C629   1.349       .  A
N628       Cu634   2.087       .  S
C629        C630   1.391       .  A
C629        H632   1.082   1_545  S
C630        C631   1.382       .  A
C630        C675   1.492       .  S
C631        H633   1.077       .  S
Cu634       N637   2.087       .  S
Cu635       N645   2.065       .  S
Cu636       N638   2.067       .  S
Cu636       N644   2.067       .  S
N637        N638   1.323       .  A
N637        C641   1.348       .  A
N638        C639   1.340       .  A
C639        C640   1.381       .  A
C639        H642   1.077       .  S
C640        C641   1.389       .  A
C641        H643   1.082   1_545  S
N644        N645   1.319       .  A
N644        C648   1.345       .  A
N645        C646   1.345       .  A
C646        C647   1.384       .  A
C646        H649   1.081       .  S
C647        C648   1.384       .  A
C647        C797   1.471       .  S
C648        H650   1.081       .  S
N651        N652   1.322       .  A
N651        C655   1.339       .  A
N651       Cu659   2.065       .  S
N652        C653   1.348       .  A
N652       Cu658   2.087       .  S
C653        C654   1.390       .  A
C653        H656   1.082   1_565  S
C654        C655   1.382       .  A
C654        C676   1.492       .  S
C655        H657   1.077       .  S
Cu658       N661   2.087       .  S
Cu659       N669   2.065       .  S
Cu660       N662   2.066       .  S
Cu660       N668   2.066       .  S
N661        N662   1.322       .  A
N661        C665   1.348       .  A
N662        C663   1.340       .  A
C663        C664   1.381       .  A
C663        H666   1.077       .  S
C664        C665   1.389       .  A
C665        H667   1.082   1_565  S
N668        N669   1.319       .  A
N668        C672   1.345       .  A
N669        C670   1.345       .  A
C670        C671   1.384       .  A
C670        H673   1.081       .  S
C671        C672   1.384       .  A
C671        C721   1.471       .  S
C672        H674   1.081       .  S
C675        C676   1.364   1_545  D
C676        C680   1.490       .  S
N677        N678   1.323       .  A
N677        C681   1.340       .  A
N677       Cu685   2.067       .  S
N678        C679   1.348       .  A
N678       Cu684   2.087       .  S
C679        C680   1.389       .  A
C679        H682   1.082   1_565  S
C680        C681   1.381       .  A
C681        H683   1.077       .  S
Cu684       N687   2.087       .  S
Cu685       N695   2.067       .  S
Cu686       N688   2.065       .  S
Cu686       N694   2.065       .  S
N687        N688   1.322       .  A
N687        C691   1.349       .  A
N688        C689   1.339       .  A
C689        C690   1.382       .  A
C689        H692   1.077       .  S
C690        C691   1.390       .  A
C691        H693   1.082   1_565  S
N694        N695   1.319       .  A
N694        C698   1.345       .  A
N695        C696   1.345       .  A
C696        C697   1.384       .  A
C696        H699   1.081       .  S
C697        C698   1.384       .  A
C697        C769   1.471       .  S
C698        H700   1.081       .  S
N701        N702   1.323       .  A
N701        C705   1.340       .  A
N701       Cu709   2.067       .  S
N702        C703   1.348       .  A
N702       Cu708   2.087       .  S
C703        C704   1.389       .  A
C703        H706   1.082       .  S
C704        C705   1.381       .  A
C704        C773   1.490       .  S
C705        H707   1.077       .  S
Cu708       N711   2.087       .  S
Cu709       N719   2.067       .  S
Cu710       N712   2.065       .  S
Cu710       N718   2.065       .  S
N711        N712   1.322       .  A
N711        C715   1.349       .  A
N712        C713   1.339       .  A
C713        C714   1.382       .  A
C713        H716   1.077       .  S
C714        C715   1.390       .  A
C714        C776   1.492       .  S
C715        H717   1.082       .  S
N718        N719   1.319       .  A
N718        C722   1.345       .  A
N719        C720   1.345       .  A
C720        C721   1.384       .  A
C720        H723   1.081       .  S
C721        C722   1.384       .  A
C722        H724   1.081       .  S
N725        N726   1.322       .  A
N725        C729   1.339       .  A
N725       Cu733   2.065       .  S
N726        C727   1.349       .  A
N726       Cu732   2.087       .  S
C727        C728   1.391       .  A
C727        H730   1.082       .  S
C728        C729   1.382       .  A
C728        C774   1.492       .  S
C729        H731   1.077       .  S
Cu732       N735   2.087       .  S
Cu733       N743   2.065       .  S
Cu734       N736   2.067       .  S
Cu734       N742   2.067       .  S
N735        N736   1.323       .  A
N735        C739   1.348       .  A
N736        C737   1.340       .  A
C737        C738   1.381       .  A
C737        H740   1.077       .  S
C738        C739   1.389       .  A
C738        C775   1.490       .  S
C739        H741   1.082       .  S
N742        N743   1.319       .  A
N742        C746   1.345       .  A
N743        C744   1.344       .  A
C744        C745   1.384       .  A
C744        H747   1.081       .  S
C745        C746   1.384       .  A
C746        H748   1.081       .  S
N749        N750   1.322       .  A
N749        C753   1.340       .  A
N749       Cu757   2.066       .  S
N750        C751   1.348       .  A
N750       Cu756   2.087       .  S
C751        C752   1.389       .  A
C751        H754   1.082       .  S
C752        C753   1.381       .  A
C752        C776   1.490       .  S
C753        H755   1.077       .  S
Cu756       N759   2.087       .  S
Cu757       N767   2.066       .  S
Cu758       N760   2.065       .  S
Cu758       N766   2.065       .  S
N759        N760   1.322       .  A
N759        C763   1.348       .  A
N760        C761   1.339       .  A
C761        C762   1.382       .  A
C761        H764   1.077       .  S
C762        C763   1.390       .  A
C763        H765   1.082       .  S
N766        N767   1.319       .  A
N766        C770   1.345       .  A
N767        C768   1.345       .  A
C768        C769   1.384       .  A
C768        H771   1.081       .  S
C769        C770   1.384       .  A
C770        H772   1.081       .  S
C775        C790   1.492       .  S
C775        C776   1.364       .  D
N777        N778   1.323       .  A
N777        C781   1.340       .  A
N777       Cu785   2.067       .  S
N778        C779   1.348       .  A
N778       Cu784   2.087       .  S
C779        C780   1.389       .  A
C779        H782   1.082       .  S
C780        C781   1.381       .  A
C781        H783   1.077       .  S
Cu784       N787   2.087       .  S
Cu785       N795   2.066       .  S
Cu786       N788   2.065       .  S
Cu786       N794   2.065       .  S
N787        N788   1.322       .  A
N787        C791   1.348       .  A
N788        C789   1.339       .  A
C789        C790   1.382       .  A
C789        H792   1.077       .  S
C790        C791   1.391       .  A
C791        H793   1.082       .  S
N794        N795   1.319       .  A
N794        C798   1.345       .  A
N795        C796   1.345       .  A
C796        C797   1.384       .  A
C796        H799   1.081       .  S
C797        C798   1.384       .  A
C798        H800   1.081       .  S
