geometry optimzed in LAMMPS
_audit_creation_date              2020-11-30 
_audit_creation_method            'lammps2cif' 
_symmetry_space_group_name_H-M    'P1' 
_symmetry_Int_Tables_number       1 
_symmetry_cell_setting            triclinic 
loop_ 
_symmetry_equiv_pos_as_xyz 
  x,y,z 
_cell_length_a                    30.53168494 
_cell_length_b                    32.2060111618514 
_cell_length_c                    32.926182321739795 
_cell_angle_alpha                 89.53573118992225 
_cell_angle_beta                  89.68200345337418 
_cell_angle_gamma                 89.18417204433186 
loop_ 
_atom_site_label 
_atom_site_type_symbol 
_atom_site_fract_x 
_atom_site_fract_y 
_atom_site_fract_z 
_atom_site_charge 
N1          N  0.31204735  0.44614386  0.04084917    -0.06800
N2          N  0.34624973  0.43484837  0.06331429    -0.59000
N3          N  0.27761878  0.40835310  0.95413556    -0.06500
N4          N  0.28667931  0.37487205  0.93305046    -0.61100
N5          N  0.30827213  0.43634558  0.94900924    -0.06100
N6          N  0.33910338  0.42152200  0.92422429    -0.58900
N7          N  0.28075124  0.41862253  0.04526917    -0.05800
N8          N  0.29247064  0.38933555  0.07108852    -0.61400
C9          C  0.33300126  0.39966200  0.08261342     0.95300
C10         C  0.32466976  0.38319629  0.91396643     0.95100
N11         N  0.14313890  0.43171387  0.95485372    -0.07000
N12         N  0.12209486  0.42845738  0.92011955    -0.59500
N13         N  0.17933827  0.41516008  0.05101255    -0.05100
N14         N  0.18137759  0.39727595  0.08717682    -0.60800
N15         N  0.14637809  0.44174122  0.04931576    -0.07000
N16         N  0.12511202  0.44246035  0.08445982    -0.59800
N17         N  0.17591627  0.40494964  0.95643998    -0.04800
N18         N  0.17776908  0.38297546  0.92276689    -0.60900
Mn19       Mn  0.22795713  0.41097361  0.00187807     1.18400
C20         C  0.14358124  0.39750973  0.90061591     0.97400
C21         C  0.14713593  0.41421665  0.10757292     0.98100
N22         N  0.30342046  0.53786127  0.93882343    -0.07100
N23         N  0.33624095  0.55314292  0.91713612    -0.63400
N24         N  0.27118873  0.57262739  0.02871082    -0.05900
N25         N  0.27937696  0.60895948  0.04451955    -0.64100
N26         N  0.30645209  0.54842787  0.02934054    -0.06600
N27         N  0.33969312  0.56929739  0.04473998    -0.63600
N28         N  0.26967196  0.56387434  0.93754006    -0.05500
N29         N  0.27892604  0.59643483  0.91476547    -0.64300
Mn30       Mn  0.30895340  0.49201597  0.98949727     1.10700
C31         C  0.32028825  0.58952616  0.90179809     0.98600
C32         C  0.32188920  0.60692527  0.05453271     0.98700
N33         N  0.14156247  0.53670587  0.03871930    -0.06600
N34         N  0.12380615  0.53857732  0.07537276    -0.62000
N35         N  0.16819247  0.55615052  0.93959850    -0.05900
N36         N  0.16956449  0.57076521  0.90213603    -0.58700
N37         N  0.13951436  0.52624909  0.94282832    -0.07200
N38         N  0.12123515  0.51972324  0.90706033    -0.61500
N39         N  0.16976143  0.56670130  0.03378301    -0.06200
N40         N  0.17095682  0.58994126  0.06655230    -0.58700
Mn41       Mn  0.14045605  0.48425564  0.99656807     1.20200
Mn42       Mn  0.21876024  0.56538121  0.98492120     1.10100
Cl43       Cl  0.22470298  0.48817514  0.99324764    -0.86700
C44         C  0.14214605  0.57221273  0.09245131     0.95700
C45         C  0.14016127  0.54797042  0.88203280     0.95500
N46         N  0.85688962  0.44310997  0.04845839    -0.06800
N47         N  0.87638198  0.44181568  0.08425468    -0.59000
N48         N  0.82879083  0.41142456  0.95435928    -0.06500
N49         N  0.83081285  0.38755415  0.92210858    -0.61100
N50         N  0.86128686  0.43749075  0.95412871    -0.06100
N51         N  0.88587369  0.43183941  0.92155523    -0.58900
N52         N  0.82538824  0.41579617  0.04759140    -0.05800
N53         N  0.82292593  0.39511116  0.08213255    -0.61400
C54         C  0.85514097  0.41116695  0.10447945     0.95300
C55         C  0.86696516  0.40009923  0.90184783     0.95100
N56         N  0.69371720  0.44142490  0.95275473    -0.07000
N57         N  0.66035568  0.42496877  0.93304433    -0.59500
N58         N  0.72487587  0.41968539  0.04510702    -0.05100
N59         N  0.71645856  0.38991180  0.07123102    -0.60800
N60         N  0.69308831  0.44777495  0.04465798    -0.07000
N61         N  0.66177398  0.43642814  0.07061555    -0.59800
N62         N  0.72669369  0.41455002  0.95370320    -0.04800
N63         N  0.71707381  0.38053989  0.93421292    -0.60900
Mn64       Mn  0.77682951  0.41491224  0.99988543     1.18400
C65         C  0.67610531  0.38724941  0.92102319     0.97400
C66         C  0.67755007  0.40044531  0.08764920     0.98100
N67         N  0.86486970  0.53277931  0.94624365    -0.07100
N68         N  0.88683675  0.53020772  0.91149018    -0.63400
N69         N  0.83192830  0.56895780  0.03823078    -0.05900
N70         N  0.83171891  0.59229910  0.07086478    -0.64100
N71         N  0.86199868  0.53972827  0.04113446    -0.06600
N72         N  0.88303657  0.54303541  0.07583213    -0.63600
N73         N  0.83487895  0.56234503  0.94396593    -0.05500
N74         N  0.83599887  0.58066777  0.90798070    -0.64300
Mn75       Mn  0.86346589  0.48825017  0.99776841     1.10700
C76         C  0.86893986  0.56088000  0.88822907     0.98600
C77         C  0.86412879  0.57631347  0.09420029     0.98700
N78         N  0.69676625  0.55059838  0.03680791    -0.06600
N79         N  0.66457960  0.56886333  0.05764724    -0.62000
N80         N  0.73366272  0.56772960  0.94365590    -0.05900
N81         N  0.72875798  0.59728622  0.91645120    -0.58700
N82         N  0.69950126  0.54320590  0.94443298    -0.07200
N83         N  0.67021402  0.55681500  0.91754567    -0.61500
N84         N  0.73078716  0.57537299  0.03529350    -0.06200
N85         N  0.72284978  0.60976749  0.05553425    -0.58700
Mn86       Mn  0.69391374  0.49598234  0.99475843     1.20200
Mn87       Mn  0.78325002  0.56926712  0.99030923     1.10100
Cl88       Cl  0.77902537  0.49213415  0.99576152    -0.86700
C89         C  0.68190475  0.60536512  0.06997062     0.95700
C90         C  0.68955903  0.59032221  0.89975203     0.95500
N91         N  0.43793462  0.04227539  0.27935989    -0.06800
N92         N  0.41671110  0.06099728  0.30966632    -0.59000
N93         N  0.41707336  0.94926701  0.24550317    -0.06500
N94         N  0.38266987  0.92644699  0.25367516    -0.61100
N95         N  0.44428065  0.94879050  0.27647684    -0.06100
N96         N  0.42813780  0.92584753  0.30635223    -0.58900
N97         N  0.41295664  0.04331251  0.24673957    -0.05800
N98         N  0.37621890  0.06370204  0.25360774    -0.59600
C99         C  0.37842490  0.07462257  0.29268801     0.95300
C100        C  0.38994508  0.91164179  0.29142744     0.95100
N101        N  0.45419128  0.95362321  0.12274095    -0.07000
N102        N  0.45382807  0.91951924  0.10057170    -0.59500
N103        N  0.41762632  0.04788381  0.15296570    -0.05100
N104        N  0.39264989  0.08165922  0.15259029    -0.60800
N105        N  0.44905891  0.05082536  0.12575684    -0.07000
N106        N  0.44615600  0.08689808  0.10645682    -0.59800
N107        N  0.42384435  0.95156151  0.15104913    -0.04800
N108        N  0.40275119  0.91637117  0.14878566    -0.60900
Mn109      Mn  0.41744939  0.99791353  0.19864509     1.18400
C110        C  0.42101002  0.89645832  0.11682850     0.97400
C111        C  0.41016894  0.10547712  0.12287997     0.98100
N112        N  0.55088404  0.95119599  0.28165730    -0.07100
N113        N  0.56625142  0.92825604  0.31222318    -0.63400
N114        N  0.57657935  0.04700099  0.25549346    -0.05900
N115        N  0.61201874  0.06586843  0.26755348    -0.64100
N116        N  0.54788737  0.04409142  0.28551147    -0.06600
N117        N  0.56516747  0.05950692  0.31906703    -0.63600
N118        N  0.58051242  0.95298419  0.25241963    -0.05500
N119        N  0.61559635  0.93099317  0.26213146    -0.64300
Mn120      Mn  0.49500225  0.99681216  0.28180274     1.10700
C121        C  0.60645884  0.91528720  0.29915402     0.98600
C122        C  0.60513877  0.07338460  0.30713351     0.98700
N123        N  0.55083018  0.05516714  0.13217251    -0.06600
N124        N  0.55046765  0.09318890  0.11631143    -0.62000
N125        N  0.58312521  0.95555022  0.15790512    -0.05900
N126        N  0.60490808  0.91983828  0.15881840    -0.58700
N127        N  0.55502721  0.95633320  0.12777293    -0.07200
N128        N  0.55699891  0.92088599  0.10781045    -0.61500
N129        N  0.57947825  0.05284124  0.16181864    -0.06200
N130        N  0.59921238  0.08860437  0.16643105    -0.58700
Mn131      Mn  0.50270876  0.00428407  0.12495951     1.20200
Mn132      Mn  0.58045894  0.00205372  0.20614902     1.10100
Cl133      Cl  0.49886649  0.00040809  0.20318410    -0.86700
C134        C  0.58118204  0.11361467  0.13790462     0.95700
C135        C  0.58875157  0.89874219  0.12709663     0.95500
N136        N  0.45795555  0.03397373  0.87326613    -0.06800
N137        N  0.46024284  0.07073858  0.89092470    -0.59000
N138        N  0.42954370  0.93707448  0.84212384    -0.06500
N139        N  0.40740901  0.90226363  0.84262180    -0.61100
N140        N  0.46183857  0.93542665  0.86826573    -0.06100
N141        N  0.46270829  0.89874155  0.88684103    -0.58900
N142        N  0.42538744  0.03392656  0.84734156    -0.05800
N143        N  0.40486698  0.07031712  0.84718606    -0.61400
C144        C  0.42659453  0.09300582  0.87464603     0.95300
C145        C  0.42801017  0.87878512  0.87085494     0.95100
N146        N  0.44413814  0.94911449  0.71460817    -0.07000
N147        N  0.42433920  0.93253657  0.68293938    -0.59500
N148        N  0.41438035  0.03736279  0.75476201    -0.05100
N149        N  0.37813733  0.05928016  0.75244882    -0.60800
N150        N  0.43860196  0.04248129  0.72204035    -0.07000
N151        N  0.41778406  0.06832700  0.69659189    -0.59800
N152        N  0.41953012  0.94446796  0.74743485    -0.04800
N153        N  0.38384050  0.92397099  0.73873649    -0.60900
Mn154      Mn  0.42182287  0.98778027  0.79859695     1.18400
C155        C  0.38695298  0.91652048  0.69864682     0.97400
C156        C  0.38009541  0.07931908  0.71674042     0.98100
N157        N  0.56322406  0.93908604  0.85981300    -0.07100
N158        N  0.56825014  0.90176497  0.87657912    -0.63400
N159        N  0.58498187  0.03959871  0.83408397    -0.05900
N160        N  0.60466323  0.07576354  0.83291673    -0.64100
N161        N  0.55837664  0.03716821  0.86542127    -0.06600
N162        N  0.55934886  0.07211958  0.88635219    -0.63600
N163        N  0.59036050  0.94329047  0.82905642    -0.05500
N164        N  0.61469608  0.90947135  0.82454434    -0.64300
Mn165      Mn  0.51045125  0.98606472  0.86893857     1.10700
C166        C  0.60084629  0.88376698  0.85436504     0.98600
C167        C  0.58878043  0.09556214  0.86582235     0.98700
N168        N  0.54607309  0.04654087  0.71333512    -0.06600
N169        N  0.55818387  0.07099169  0.68285526    -0.62000
N170        N  0.58183345  0.95100280  0.73548186    -0.05900
N171        N  0.61744274  0.93137228  0.72342511    -0.58700
N172        N  0.55274505  0.95349422  0.70603951    -0.07200
N173        N  0.56981354  0.93659576  0.67260579    -0.61500
N174        N  0.57717460  0.04492977  0.74093033    -0.06200
N175        N  0.60997062  0.06871475  0.73027785    -0.58700
Mn176      Mn  0.49532669  0.99799845  0.71268242     1.20200
Mn177      Mn  0.58409772  0.99460546  0.78533635     1.10100
Cl178      Cl  0.50289685  0.99137268  0.79108573    -0.86700
C179        C  0.59783602  0.08514814  0.69435995     0.95700
C180        C  0.61016997  0.92252369  0.68436574     0.95500
N181        N  0.04813050  0.19257566  0.46177356    -0.06800
N182        N  0.06221826  0.16180164  0.43833347    -0.59000
N183        N  0.07464994  0.22450364  0.55336895    -0.06500
N184        N  0.10668674  0.21697330  0.57885955    -0.61100
N185        N  0.04600559  0.19426872  0.55413873    -0.06100
N186        N  0.05901688  0.16505026  0.58038253    -0.58900
N187        N  0.07727495  0.22244899  0.46194891    -0.05800
N188        N  0.11087866  0.21303931  0.43854156    -0.61400
C189        C  0.10099305  0.17568635  0.42357863     0.95300
C190        C  0.09672619  0.18027914  0.59594760     0.95100
N191        N  0.04806667  0.35236880  0.55059922    -0.07000
N192        N  0.05325498  0.37688310  0.58231096    -0.59500
N193        N  0.07978692  0.31954442  0.45839884    -0.05100
N194        N  0.10639638  0.32099432  0.42674782    -0.60800
N195        N  0.05024877  0.34938739  0.45614517    -0.07000
N196        N  0.05585658  0.37133227  0.42254146    -0.59800
N197        N  0.07624169  0.32131341  0.55222090    -0.04800
N198        N  0.10072315  0.32394295  0.58489947    -0.60900
Mn199      Mn  0.07764430  0.27214285  0.50648641     1.18400
C200        C  0.08674325  0.35901345  0.60352402     0.97400
C201        C  0.09138499  0.35356946  0.40445035     0.98100
N202        N  0.93816304  0.19694794  0.55099442    -0.07100
N203        N  0.91746082  0.16525324  0.56798361    -0.63400
N204        N  0.91254488  0.22640821  0.45915791    -0.05900
N205        N  0.87677206  0.21737570  0.43912725    -0.64100
N206        N  0.93953462  0.19407256  0.46067610    -0.06600
N207        N  0.92131478  0.16203548  0.44229869    -0.63600
N208        N  0.91217973  0.23004028  0.55091519    -0.05500
N209        N  0.87497951  0.22197679  0.56924926    -0.64300
Mn210      Mn  0.99330921  0.19321887  0.50685709     1.10700
C211        C  0.87818289  0.18166906  0.57948324     0.98600
C212        C  0.88243257  0.17747007  0.42835706     0.98700
N213        N  0.94773064  0.35226902  0.45392535    -0.06600
N214        N  0.94467317  0.37424740  0.41994889    -0.62000
N215        N  0.91615098  0.32614693  0.54836921    -0.05900
N216        N  0.89437670  0.32654132  0.58301238    -0.58700
N217        N  0.94644435  0.35467495  0.54815375    -0.07200
N218        N  0.94608220  0.37495035  0.58282317    -0.61500
N219        N  0.91821134  0.32306193  0.45437591    -0.06200
N220        N  0.89499252  0.32416013  0.42076599    -0.58700
Mn221      Mn  0.99798081  0.35410457  0.50199776     1.20200
Mn222      Mn  0.91446573  0.27704249  0.50308562     1.10100
Cl223      Cl  0.99585386  0.27384982  0.50447423    -0.86700
C224        C  0.91143354  0.35643133  0.39950234     0.95700
C225        C  0.91284645  0.35756140  0.60381018     0.95500
N226        N  0.05626887  0.63704706  0.44191607    -0.06800
N227        N  0.06058766  0.61691236  0.40719380    -0.59000
N228        N  0.08422937  0.66113538  0.53816708    -0.06500
N229        N  0.10780270  0.65720431  0.57149380    -0.61100
N230        N  0.05515910  0.63155353  0.53630501    -0.06100
N231        N  0.05822052  0.60677359  0.56834205    -0.58900
N232        N  0.08561669  0.66631070  0.44413371    -0.05800
N233        N  0.11054891  0.66680973  0.41129707    -0.61400
C234        C  0.09483861  0.63574917  0.38862647     0.95300
C235        C  0.09145986  0.62296189  0.58972041     0.95100
N236        N  0.05652178  0.78997137  0.54173452    -0.07000
N237        N  0.07213232  0.82023667  0.56444179    -0.59500
N238        N  0.08436858  0.76236464  0.44868267    -0.05100
N239        N  0.11957825  0.77219210  0.42792558    -0.60800
N240        N  0.05667102  0.79414543  0.45041936    -0.07000
N241        N  0.07422995  0.82682355  0.43198558    -0.59800
N242        N  0.08505628  0.75881475  0.54072545    -0.04800
N243        N  0.11956990  0.76695586  0.56298038    -0.60900
Mn244      Mn  0.08532445  0.71170168  0.49308948     1.18400
C245        C  0.11117080  0.80495646  0.57807830     0.97400
C246        C  0.11339070  0.81228307  0.41779325     0.98100
N247        N  0.95331381  0.63181827  0.53697439    -0.07100
N248        N  0.94925858  0.60724455  0.56915594    -0.63400
N249        N  0.92343706  0.66611987  0.44426764    -0.05900
N250        N  0.89925876  0.66674439  0.41120184    -0.64100
N251        N  0.95396745  0.63713613  0.44204825    -0.06600
N252        N  0.95148098  0.61747367  0.40706299    -0.63600
N253        N  0.92331080  0.66127427  0.53804417    -0.05500
N254        N  0.89814393  0.65703343  0.57045142    -0.64300
Mn255      Mn  0.00470824  0.63259197  0.48913332     1.10700
C256        C  0.91410154  0.62288849  0.58975285     0.98600
C257        C  0.91669161  0.63591944  0.38858280     0.98700
N258        N  0.94719297  0.79435784  0.45070286    -0.06600
N259        N  0.92704018  0.82694325  0.43356577    -0.62000
N260        N  0.92048986  0.75893657  0.54059562    -0.05900
N261        N  0.88494755  0.76798788  0.56170821    -0.58700
N262        N  0.94822473  0.78998814  0.54154576    -0.07200
N263        N  0.93101461  0.82107076  0.56278063    -0.61500
N264        N  0.92160383  0.76179523  0.44843272    -0.06200
N265        N  0.88571702  0.77090447  0.42835493    -0.58700
Mn266      Mn  0.00219571  0.79331975  0.49606680     1.20200
Mn267      Mn  0.92192304  0.71159492  0.49302277     1.10100
Cl268      Cl  0.00358637  0.71283547  0.49299905    -0.86700
C269        C  0.88875177  0.81143206  0.41942957     0.95700
C270        C  0.89187722  0.80642202  0.57577503     0.95500
C271        C  0.64781116  0.91171626  0.65741126     0.00600
C272        C  0.64784630  0.87564151  0.63345593     0.03400
C273        C  0.68767190  0.85998142  0.61705546    -0.12600
C274        C  0.72740614  0.88053258  0.62444198     0.22700
C275        C  0.72686645  0.91799546  0.64600728    -0.13200
C276        C  0.68736659  0.93383907  0.66195239     0.04200
C277        C  0.77041722  0.86220723  0.61193173     0.26600
C278        C  0.79174494  0.83312568  0.63758148    -0.13900
C279        C  0.83403936  0.81829635  0.62775360     0.04700
C280        C  0.85503187  0.83169282  0.59192726    -0.09800
C281        C  0.83465881  0.86233378  0.56722944     0.05500
C282        C  0.79228707  0.87727723  0.57707287    -0.14200
Br283      Br  0.78120161  0.94619809  0.65616296    -0.06300
Br284      Br  0.59403597  0.84638380  0.62543524    -0.00700
Br285      Br  0.86442044  0.78054260  0.66399423    -0.00200
Br286      Br  0.76357021  0.91785892  0.54251353    -0.04600
Br287      Br  0.68868886  0.98580092  0.69103485    -0.00100
Br288      Br  0.68847151  0.80924557  0.58639941    -0.03900
Br289      Br  0.76278802  0.81322118  0.68603615    -0.04800
Br290      Br  0.86398510  0.88318077  0.51930545    -0.00800
C291        C  0.34766558  0.90593143  0.67459083     0.00600
C292        C  0.34831679  0.87273708  0.64694266     0.03400
C293        C  0.30885932  0.85950985  0.62923615    -0.12600
C294        C  0.26858718  0.87866957  0.64001964     0.22700
C295        C  0.26825079  0.91287862  0.66627498    -0.13200
C296        C  0.30772329  0.92751182  0.68215651     0.04200
C297        C  0.22631576  0.86198587  0.62530437     0.26600
C298        C  0.20652556  0.87820376  0.58988242    -0.13900
C299        C  0.16628700  0.86235147  0.57634272     0.04700
C300        C  0.14632826  0.82917896  0.59752573    -0.09800
C301        C  0.16587938  0.81381707  0.63349206     0.05500
C302        C  0.20518986  0.83063692  0.64771746    -0.14200
Br303      Br  0.21321918  0.93835182  0.68218039    -0.06300
Br304      Br  0.40275851  0.84441716  0.63466938    -0.00700
Br305      Br  0.14013760  0.88473964  0.52751411    -0.00200
Br306      Br  0.23059870  0.81050565  0.69787049    -0.04600
Br307      Br  0.30677043  0.97875710  0.71240182    -0.00100
Br308      Br  0.30947330  0.81437328  0.59113921    -0.03900
Br309      Br  0.23568341  0.92113812  0.55929469    -0.04800
Br310      Br  0.13908570  0.76927822  0.66338496    -0.00800
C311        C  0.63159068  0.10152793  0.66672286     0.00600
C312        C  0.65574369  0.13611359  0.67919420     0.03400
C313        C  0.69633833  0.14464659  0.66102614    -0.12600
C314        C  0.71402793  0.11739568  0.63183454     0.22700
C315        C  0.68991348  0.08315426  0.61879497    -0.13200
C316        C  0.64796164  0.07606293  0.63510767     0.04200
C317        C  0.75736095  0.12627722  0.61393491     0.26600
C318        C  0.75954674  0.15073081  0.57855040    -0.13900
C319        C  0.79999853  0.16577324  0.56517829     0.04700
C320        C  0.83840934  0.15755436  0.58818985    -0.09800
C321        C  0.83659749  0.13042490  0.62184718     0.05500
C322        C  0.79597822  0.11462363  0.63464188    -0.14200
Br323      Br  0.71606619  0.04438114  0.58102875    -0.06300
Br324      Br  0.63430309  0.17070040  0.72273268    -0.00700
Br325      Br  0.80147935  0.19806006  0.51532643    -0.00200
Br326      Br  0.79240983  0.07950178  0.68218487    -0.04600
Br327      Br  0.61494646  0.02940751  0.61610505    -0.00100
Br328      Br  0.72891147  0.19271884  0.67728436    -0.03900
Br329      Br  0.70631896  0.16655022  0.55044606    -0.04800
Br330      Br  0.88883471  0.11796402  0.65244197    -0.00800
C331        C  0.33989669  0.10106267  0.70034519     0.00600
C332        C  0.30228325  0.10472641  0.72612071     0.03400
C333        C  0.26059028  0.11123426  0.70948385    -0.12600
C334        C  0.25619866  0.12286436  0.66862315     0.22700
C335        C  0.29399525  0.12590819  0.64389465    -0.13200
C336        C  0.33555200  0.11344341  0.65910477     0.04200
C337        C  0.21194562  0.13475887  0.65314343     0.26600
C338        C  0.18800183  0.10721505  0.62894450    -0.13900
C339        C  0.14682424  0.11955987  0.61312526     0.04700
C340        C  0.12888313  0.15895367  0.62283695    -0.09800
C341        C  0.15027386  0.18365974  0.65160016     0.05500
C342        C  0.19230323  0.17254859  0.66539752    -0.14200
Br343      Br  0.28849521  0.14748261  0.58931226    -0.06300
Br344      Br  0.30601369  0.10574496  0.78490772    -0.00700
Br345      Br  0.11632310  0.08304853  0.57732199    -0.00200
Br346      Br  0.22350133  0.20994028  0.70009344    -0.04600
Br347      Br  0.38574497  0.11546907  0.62337696    -0.00100
Br348      Br  0.20886933  0.10301793  0.74266352    -0.03900
Br349      Br  0.21194427  0.05271232  0.61767160    -0.04800
Br350      Br  0.12142684  0.23308178  0.67213426    -0.00800
C351        C  0.64192087  0.89707841  0.32461761     0.00600
C352        C  0.65694985  0.91842254  0.35912907     0.03400
C353        C  0.69846248  0.90868486  0.37559575    -0.12600
C354        C  0.72427675  0.87628690  0.35906906     0.22700
C355        C  0.70803418  0.85317113  0.32636023    -0.13200
C356        C  0.66734469  0.86389487  0.30887678     0.04200
C357        C  0.76733272  0.86485620  0.37754929     0.26600
C358        C  0.80709886  0.87806823  0.35985001    -0.13900
C359        C  0.84767770  0.86331445  0.37521482     0.04700
C360        C  0.84853030  0.83568090  0.40861234    -0.09800
C361        C  0.80858485  0.82597525  0.42867621     0.05500
C362        C  0.76832616  0.83978145  0.41267574    -0.14200
Br363      Br  0.74205751  0.80725616  0.30497459    -0.06300
Br364      Br  0.62230272  0.96266095  0.38278926    -0.00700
Br365      Br  0.90171826  0.87922896  0.34940435    -0.00200
Br366      Br  0.71409087  0.82281312  0.43799337    -0.04600
Br367      Br  0.64633958  0.83325891  0.26284495    -0.00100
Br368      Br  0.72129607  0.94095557  0.41965372    -0.03900
Br369      Br  0.80558572  0.91555720  0.31396209    -0.04800
Br370      Br  0.80798494  0.79396978  0.47876248    -0.00800
C371        C  0.15103215  0.83797026  0.40515506     0.00600
C372        C  0.19172172  0.83197245  0.42518654     0.03400
C373        C  0.23017055  0.84822509  0.40834823    -0.12600
C374        C  0.22854104  0.87018915  0.37137969     0.22700
C375        C  0.18784743  0.87898632  0.35290183    -0.13200
C376        C  0.14890388  0.86355977  0.37028455     0.04200
C377        C  0.27025664  0.88084666  0.35092769     0.26600
C378        C  0.29255515  0.91701215  0.36171135    -0.13900
C379        C  0.33492118  0.92407631  0.34642297     0.04700
C380        C  0.35301851  0.89733613  0.31665593    -0.09800
C381        C  0.33005691  0.86169639  0.30511124     0.05500
C382        C  0.28970354  0.85249802  0.32362910    -0.14200
Br383      Br  0.18613974  0.90986398  0.30252485    -0.06300
Br384      Br  0.19607813  0.80083150  0.47561059    -0.00700
Br385      Br  0.36690309  0.97138283  0.36554144    -0.00200
Br386      Br  0.26095511  0.80099107  0.31191285    -0.04600
Br387      Br  0.09325482  0.87549739  0.34517295    -0.00100
Br388      Br  0.28595274  0.83807690  0.43447263    -0.03900
Br389      Br  0.26399276  0.95770428  0.39588104    -0.04800
Br390      Br  0.35368067  0.82572337  0.26356239    -0.00800
C391        C  0.64276037  0.08116564  0.33451914     0.00600
C392        C  0.68258690  0.05862861  0.32857343     0.03400
C393        C  0.72116778  0.07105883  0.34785732    -0.12600
C394        C  0.72020969  0.10466904  0.37483057     0.22700
C395        C  0.67967772  0.12396993  0.38452786    -0.13200
C396        C  0.64119814  0.11301003  0.36362781     0.04200
C397        C  0.76247040  0.12223497  0.38893473     0.26600
C398        C  0.78405305  0.10599334  0.42345441    -0.13900
C399        C  0.82540068  0.12136235  0.43484920     0.04700
C400        C  0.84526540  0.15343158  0.41182539    -0.09800
C401        C  0.82380915  0.16883362  0.37680681     0.05500
C402        C  0.78272896  0.15341182  0.36548662    -0.14200
Br403      Br  0.67732053  0.16570850  0.42603615    -0.06300
Br404      Br  0.68534544  0.01019532  0.29416229    -0.00700
Br405      Br  0.85302423  0.09999732  0.48338825    -0.00200
Br406      Br  0.75356934  0.17552746  0.31793702    -0.04600
Br407      Br  0.58746452  0.14387549  0.37224931    -0.00100
Br408      Br  0.77615496  0.04323035  0.33586397    -0.03900
Br409      Br  0.75587988  0.06361030  0.45562921    -0.04800
Br410      Br  0.85098769  0.21134500  0.34397643    -0.00800
C411        C  0.33788485  0.08673783  0.31488689     0.00600
C412        C  0.29971690  0.06253514  0.31014657     0.03400
C413        C  0.25922816  0.07650922  0.32564836    -0.12600
C414        C  0.25615883  0.11479753  0.34559424     0.22700
C415        C  0.29389570  0.13904381  0.35047191    -0.13200
C416        C  0.33478864  0.12487147  0.33540595     0.04200
C417        C  0.21387761  0.12741321  0.36452651     0.26600
C418        C  0.18092919  0.14781062  0.34161570    -0.13900
C419        C  0.14072462  0.15867385  0.36010752     0.04700
C420        C  0.13421580  0.15100514  0.40174127    -0.09800
C421        C  0.16653420  0.12938990  0.42422090     0.05500
C422        C  0.20595961  0.11695350  0.40547055    -0.14200
Br423      Br  0.28901260  0.19202291  0.37709952    -0.06300
Br424      Br  0.30176751  0.00979179  0.28243915    -0.00700
Br425      Br  0.09443802  0.18500864  0.32917567    -0.00200
Br426      Br  0.25006051  0.08680586  0.43608305    -0.04600
Br427      Br  0.38603803  0.15850412  0.34099250    -0.00100
Br428      Br  0.20741624  0.04324191  0.31970720    -0.03900
Br429      Br  0.19159805  0.16277316  0.28571991    -0.04800
Br430      Br  0.15805636  0.11914599  0.48136957    -0.00800
C431        C  0.59808085  0.85421488  0.12007034     0.00600
C432        C  0.57033299  0.82381100  0.13685099     0.03400
C433        C  0.57941378  0.78128971  0.13049144    -0.12600
C434        C  0.61670924  0.76893448  0.10794807     0.22700
C435        C  0.64475606  0.79946760  0.09168855    -0.13200
C436        C  0.63550455  0.84195036  0.09788418     0.04200
C437        C  0.62680433  0.72402560  0.10114419     0.26600
C438        C  0.64968720  0.70043627  0.13069087    -0.13900
C439        C  0.66447441  0.65972707  0.12183946     0.04700
C440        C  0.65645891  0.64234978  0.08345333    -0.09800
C441        C  0.63243575  0.66563454  0.05445596     0.05500
C442        C  0.61680649  0.70585951  0.06361019    -0.14200
Br443      Br  0.69609547  0.78303058  0.06105959    -0.06300
Br444      Br  0.52077657  0.84048551  0.16986171    -0.00700
Br445      Br  0.69826029  0.62861192  0.16125121    -0.00200
Br446      Br  0.58361630  0.73717177  0.02391283    -0.04600
Br447      Br  0.67430382  0.88361763  0.07651782    -0.00100
Br448      Br  0.54094210  0.73983791  0.15264623    -0.03900
Br449      Br  0.66274865  0.72488516  0.18244207    -0.04800
Br450      Br  0.62601580  0.64481483  0.00019610    -0.00800
C451        C  0.65374248  0.36938412  0.11309569     0.00600
C452        C  0.67942180  0.34081077  0.13613672     0.03400
C453        C  0.66420573  0.30051093  0.14409259    -0.12600
C454        C  0.62174771  0.28958176  0.13230415     0.22700
C455        C  0.59319034  0.32064745  0.11699593    -0.13200
C456        C  0.60914831  0.36038455  0.10664522     0.04200
C457        C  0.60852830  0.24508315  0.13340278     0.26600
C458        C  0.61366471  0.22048928  0.09835763    -0.13900
C459        C  0.60322148  0.17791451  0.09934193     0.04700
C460        C  0.58915866  0.15912812  0.13590644    -0.09800
C461        C  0.58562702  0.18362578  0.17146465     0.05500
C462        C  0.59416882  0.22654409  0.16983926    -0.14200
Br463      Br  0.53255132  0.30805874  0.10978119    -0.06300
Br464      Br  0.73630381  0.35642779  0.15600834    -0.00700
Br465      Br  0.61232626  0.14453138  0.05155282    -0.00200
Br466      Br  0.58777611  0.26005782  0.21789048    -0.04600
Br467      Br  0.57006006  0.40092655  0.08245744    -0.00100
Br468      Br  0.70254068  0.25938155  0.16864017    -0.03900
Br469      Br  0.63823001  0.24479906  0.04981498    -0.04800
Br470      Br  0.57036284  0.15897127  0.22322318    -0.00800
C471        C  0.66830588  0.62392252  0.87532698     0.00600
C472        C  0.62570291  0.63844215  0.88505404     0.03400
C473        C  0.61441601  0.68052856  0.87818898    -0.12600
C474        C  0.64507590  0.70785845  0.86075896     0.22700
C475        C  0.68520133  0.69195499  0.84589232    -0.13200
C476        C  0.69611569  0.64979498  0.85199945     0.04200
C477        C  0.63526308  0.75326233  0.85882368     0.26600
C478        C  0.62137881  0.77177370  0.82220211    -0.13900
C479        C  0.61166065  0.81460541  0.82045993     0.04700
C480        C  0.61309540  0.83891763  0.85616777    -0.09800
C481        C  0.62603859  0.81999592  0.89311734     0.05500
C482        C  0.63872092  0.77770008  0.89400456    -0.14200
Br483      Br  0.72684451  0.72855772  0.82028424    -0.06300
Br484      Br  0.58312808  0.60194405  0.90912999    -0.00700
Br485      Br  0.59326885  0.83847675  0.76914564    -0.00200
Br486      Br  0.66226800  0.75320824  0.94303271    -0.04600
Br487      Br  0.75053977  0.62780980  0.83004582    -0.00100
Br488      Br  0.55800854  0.70171715  0.89521531    -0.03900
Br489      Br  0.61450290  0.73788634  0.77460451    -0.04800
Br490      Br  0.62727189  0.85185066  0.94248813    -0.00800
C491        C  0.59742789  0.13970436  0.87385744     0.00600
C492        C  0.62593408  0.15059765  0.90526446     0.03400
C493        C  0.63751427  0.19240960  0.91041933    -0.12600
C494        C  0.61809791  0.22379672  0.88598172     0.22700
C495        C  0.58896251  0.21287647  0.85497303    -0.13200
C496        C  0.58018464  0.17082148  0.84784006     0.04200
C497        C  0.62857601  0.26821973  0.89237898     0.26600
C498        C  0.60924943  0.29012632  0.92491343    -0.13900
C499        C  0.62087299  0.33163393  0.93218115     0.04700
C500        C  0.65072566  0.35187603  0.90600145    -0.09800
C501        C  0.66749982  0.33067066  0.87190256     0.05500
C502        C  0.65769415  0.28864607  0.86581920    -0.14200
Br503      Br  0.56135674  0.25570174  0.82216606    -0.06300
Br504      Br  0.65079703  0.10770909  0.93961096    -0.00700
Br505      Br  0.59958119  0.35877547  0.98048350    -0.00200
Br506      Br  0.68722762  0.25805199  0.82331793    -0.04600
Br507      Br  0.54614273  0.15596428  0.80130756    -0.00100
Br508      Br  0.68176321  0.20637667  0.94927995    -0.03900
Br509      Br  0.56918976  0.26200864  0.96105406    -0.04800
Br510      Br  0.70600023  0.35918013  0.83467105    -0.00800
C511        C  0.87613556  0.56577356  0.84395970     0.00600
C512        C  0.90752778  0.59369835  0.82891873     0.03400
C513        C  0.91050949  0.60196518  0.78684065    -0.12600
C514        C  0.88173746  0.58268098  0.75967055     0.22700
C515        C  0.84878052  0.55663102  0.77504549    -0.13200
C516        C  0.84714293  0.54681403  0.81679494     0.04200
C517        C  0.88570741  0.59039383  0.71505599     0.26600
C518        C  0.86517657  0.62526058  0.69721729    -0.13900
C519        C  0.87024380  0.63347180  0.65530634     0.04700
C520        C  0.89932419  0.60861864  0.63129759    -0.09800
C521        C  0.91616632  0.57120879  0.64876054     0.05500
C522        C  0.90924257  0.56233312  0.69034266    -0.14200
Br523      Br  0.80292711  0.53870272  0.73955282    -0.06300
Br524      Br  0.94526237  0.62170561  0.86618936    -0.00700
Br525      Br  0.83364794  0.67687221  0.63201562    -0.00200
Br526      Br  0.93206513  0.51147507  0.71376077    -0.04600
Br527      Br  0.80492056  0.50753082  0.83695694    -0.00100
Br528      Br  0.95122611  0.64254359  0.76657187    -0.03900
Br529      Br  0.83030910  0.66205349  0.73088666    -0.04800
Br530      Br  0.94584494  0.52965772  0.61614623    -0.00800
C531        C  0.90527462  0.62996953  0.34575571     0.00600
C532        C  0.93246043  0.64651310  0.31518654     0.03400
C533        C  0.92232946  0.64067737  0.27416051    -0.12600
C534        C  0.88424023  0.61922865  0.26367812     0.22700
C535        C  0.85553529  0.60490821  0.29416485    -0.13200
C536        C  0.86626924  0.60999309  0.33530178     0.04200
C537        C  0.87728288  0.60806665  0.22081833     0.26600
C538        C  0.85482524  0.63523469  0.19448405    -0.13900
C539        C  0.85198010  0.62603994  0.15285347     0.04700
C540        C  0.87157675  0.58882812  0.13730197    -0.09800
C541        C  0.89534275  0.56232032  0.16446870     0.05500
C542        C  0.89672135  0.57146861  0.20605806    -0.14200
Br543      Br  0.80213233  0.57785816  0.27924410    -0.06300
Br544      Br  0.98262412  0.67856355  0.32955576    -0.00700
Br545      Br  0.82280654  0.66686693  0.11845751    -0.00200
Br546      Br  0.92467663  0.53335481  0.24388794    -0.04600
Br547      Br  0.82840402  0.58867251  0.37731339    -0.00100
Br548      Br  0.96096411  0.66124337  0.23214054    -0.03900
Br549      Br  0.82750415  0.68493332  0.21618877    -0.04800
Br550      Br  0.92788282  0.51358241  0.14699556    -0.00800
C551        C  0.90771610  0.36147483  0.64772871     0.00600
C552        C  0.87962482  0.39202480  0.66394313     0.03400
C553        C  0.87392686  0.39444370  0.70617676    -0.12600
C554        C  0.89604207  0.36616807  0.73197115     0.22700
C555        C  0.92311655  0.33479638  0.71556671    -0.13200
C556        C  0.92966250  0.33292306  0.67342825     0.04200
C557        C  0.89195553  0.37058389  0.77644040     0.26600
C558        C  0.92110797  0.39597500  0.79713844    -0.13900
C559        C  0.91460567  0.40473075  0.83846945     0.04700
C560        C  0.87926986  0.38611943  0.86003233    -0.09800
C561        C  0.85365476  0.35604886  0.83970176     0.05500
C562        C  0.85877089  0.35005156  0.79769661    -0.14200
Br563      Br  0.94984188  0.29379462  0.75084763    -0.06300
Br564      Br  0.84872359  0.42990169  0.62818571    -0.00700
Br565      Br  0.95559527  0.44204695  0.86348005    -0.00200
Br566      Br  0.81988278  0.31425466  0.76845929    -0.04600
Br567      Br  0.96921000  0.29166950  0.65090153    -0.00100
Br568      Br  0.83488349  0.43544875  0.72894165    -0.03900
Br569      Br  0.97000977  0.41878720  0.76804958    -0.04800
Br570      Br  0.81312335  0.32021733  0.86793660    -0.00800
C571        C  0.89774718  0.36717033  0.35724137     0.00600
C572        C  0.92843541  0.38264619  0.32865735     0.03400
C573        C  0.91588983  0.39073400  0.28842705    -0.12600
C574        C  0.87394374  0.38014596  0.27523670     0.22700
C575        C  0.84291751  0.36499123  0.30312239    -0.13200
C576        C  0.85425449  0.35971523  0.34430042     0.04200
C577        C  0.86341990  0.38535883  0.23171503     0.26600
C578        C  0.84346661  0.42248219  0.21797444    -0.13900
C579        C  0.84045221  0.43072724  0.17614776     0.04700
C580        C  0.85889315  0.40254580  0.14813400    -0.09800
C581        C  0.87635366  0.36424416  0.16172720     0.05500
C582        C  0.87854985  0.35558175  0.20357858    -0.14200
Br583      Br  0.78489971  0.35176580  0.28463265    -0.06300
Br584      Br  0.98899401  0.38952307  0.34190562    -0.00700
Br585      Br  0.80874742  0.47932901  0.15718443    -0.00200
Br586      Br  0.90306856  0.30343209  0.22261565    -0.04600
Br587      Br  0.80892501  0.34414167  0.38247529    -0.00100
Br588      Br  0.95604137  0.41689965  0.25080366    -0.03900
Br589      Br  0.82139348  0.46232477  0.25665050    -0.04800
Br590      Br  0.89740183  0.32388865  0.12298597    -0.00800
C591        C  0.34745783  0.62495190  0.88810591     0.00600
C592        C  0.38165182  0.63915604  0.91316266     0.03400
C593        C  0.39644924  0.68022475  0.90898028    -0.12600
C594        C  0.37963306  0.70630058  0.87809719     0.22700
C595        C  0.34903684  0.69088533  0.85051679    -0.13200
C596        C  0.33217673  0.65084050  0.85613857     0.04200
C597        C  0.39218751  0.75064267  0.87632243     0.26600
C598        C  0.36392267  0.78139660  0.89249800    -0.13900
C599        C  0.37682882  0.82316663  0.89283640     0.04700
C600        C  0.41790220  0.83443475  0.87683385    -0.09800
C601        C  0.44556662  0.80374853  0.85972570     0.05500
C602        C  0.43243425  0.76206562  0.85885663    -0.14200
Br603      Br  0.32792432  0.72604129  0.80677715    -0.06300
Br604      Br  0.40530062  0.60492448  0.95649390    -0.00700
Br605      Br  0.33801227  0.86516717  0.91480228    -0.00200
Br606      Br  0.46724012  0.72108176  0.83035481    -0.04600
Br607      Br  0.28615555  0.63297140  0.82109152    -0.00100
Br608      Br  0.43617938  0.70251930  0.94835582    -0.03900
Br609      Br  0.30623492  0.76665016  0.91142018    -0.04800
Br610      Br  0.49994827  0.81919316  0.83472501    -0.00800
C611        C  0.35014018  0.34912424  0.89393364     0.00600
C612        C  0.39536231  0.34270877  0.90135041     0.03400
C613        C  0.41445782  0.30286144  0.89580100    -0.12600
C614        C  0.38860998  0.26938742  0.88325963     0.22700
C615        C  0.34492501  0.27701946  0.87165415    -0.13200
C616        C  0.32637659  0.31698526  0.87545110     0.04200
C617        C  0.40619358  0.22587437  0.88240310     0.26600
C618        C  0.41724015  0.20756825  0.84503826    -0.13900
C619        C  0.42371286  0.16426162  0.84248908     0.04700
C620        C  0.42153541  0.13895258  0.87783675    -0.09800
C621        C  0.41369948  0.15780830  0.91574715     0.05500
C622        C  0.40538965  0.20099918  0.91787070    -0.14200
Br623      Br  0.30938581  0.23185041  0.85304457    -0.06300
Br624      Br  0.43136453  0.38733287  0.92010504    -0.00700
Br625      Br  0.43456019  0.14024214  0.78992666    -0.00200
Br626      Br  0.39019764  0.22591534  0.96897018    -0.04600
Br627      Br  0.26798249  0.32744180  0.85504691    -0.00100
Br628      Br  0.47558931  0.29362054  0.90658184    -0.03900
Br629      Br  0.42161630  0.24213407  0.79705476    -0.04800
Br630      Br  0.41057224  0.12409285  0.96433475    -0.00800
C631        C  0.40981931  0.85263791  0.10585154     0.00600
C632        C  0.37037332  0.83484602  0.12097663     0.03400
C633        C  0.36260156  0.79211920  0.11656673    -0.12600
C634        C  0.39213771  0.76695524  0.09468097     0.22700
C635        C  0.43013579  0.78441310  0.07791394    -0.13200
C636        C  0.43898433  0.82697661  0.08290991     0.04200
C637        C  0.37895282  0.72440048  0.08286907     0.26600
C638        C  0.38862816  0.68941062  0.10742335    -0.13900
C639        C  0.37212115  0.65005154  0.09722298     0.04700
C640        C  0.34647707  0.64556388  0.06209853    -0.09800
C641        C  0.33905389  0.68049206  0.03637713     0.05500
C642        C  0.35468956  0.71966555  0.04712055    -0.14200
Br643      Br  0.46950681  0.74925984  0.04728064    -0.06300
Br644      Br  0.32332016  0.86850850  0.14366071    -0.00700
Br645      Br  0.38162701  0.60315173  0.13287196    -0.00200
Br646      Br  0.34100215  0.76790194  0.01403160    -0.04600
Br647      Br  0.49003122  0.84876279  0.05562871    -0.00100
Br648      Br  0.31052174  0.76764805  0.13967476    -0.03900
Br649      Br  0.42286767  0.69611393  0.15576592    -0.04800
Br650      Br  0.30700134  0.67565249  0.98617000    -0.00800
C651        C  0.36134298  0.36747064  0.10163630     0.00600
C652        C  0.39479906  0.34838888  0.07822670     0.03400
C653        C  0.40551206  0.30614571  0.08468358    -0.12600
C654        C  0.38366090  0.28328187  0.11510439     0.22700
C655        C  0.35409457  0.30357857  0.14146959    -0.13200
C656        C  0.34378829  0.34581211  0.13525037     0.04200
C657        C  0.38957914  0.23751808  0.11758817     0.26600
C658        C  0.36434893  0.21159191  0.09276972    -0.13900
C659        C  0.37063098  0.16814539  0.09435632     0.04700
C660        C  0.40217324  0.15070875  0.12069888    -0.09800
C661        C  0.42567901  0.17655126  0.14682683     0.05500
C662        C  0.41972814  0.21985117  0.14510300    -0.14200
Br663      Br  0.32395267  0.27237095  0.18309095    -0.06300
Br664      Br  0.42277666  0.37825944  0.03452569    -0.00700
Br665      Br  0.33507729  0.13250365  0.06183355    -0.00200
Br666      Br  0.45211182  0.25495239  0.18099213    -0.04600
Br667      Br  0.30233873  0.37338845  0.17060869    -0.00100
Br668      Br  0.44651561  0.27817704  0.04908138    -0.03900
Br669      Br  0.32043568  0.23586065  0.05755460    -0.04800
Br670      Br  0.46453039  0.15212392  0.18643403    -0.00800
C671        C  0.10337898  0.60911559  0.63094277     0.00600
C672        C  0.09534922  0.63554041  0.66407987     0.03400
C673        C  0.10665227  0.62262964  0.70354733    -0.12600
C674        C  0.12292606  0.58197882  0.71049215     0.22700
C675        C  0.13139448  0.55568855  0.67711146    -0.13200
C676        C  0.12182330  0.56937670  0.63739912     0.04200
C677        C  0.12796179  0.56672441  0.75305014     0.26600
C678        C  0.16968079  0.56305330  0.77077014    -0.13900
C679        C  0.17351669  0.55323796  0.81233796     0.04700
C680        C  0.13567354  0.54958735  0.83711444    -0.09800
C681        C  0.09406602  0.55058205  0.81880632     0.05500
C682        C  0.09030692  0.55888836  0.77687352    -0.14200
Br683      Br  0.15648016  0.50119062  0.68510859    -0.06300
Br684      Br  0.06441791  0.68755103  0.65596446    -0.00700
Br685      Br  0.23090879  0.54235796  0.83440224    -0.00200
Br686      Br  0.03324967  0.56139086  0.75212912    -0.04600
Br687      Br  0.13394705  0.53377661  0.59168488    -0.00100
Br688      Br  0.10002483  0.66076943  0.74820369    -0.03900
Br689      Br  0.22155481  0.57378920  0.73870959    -0.04800
Br690      Br  0.04193188  0.54286160  0.85115009    -0.00800
C691        C  0.13780142  0.58308687  0.13631371     0.00600
C692        C  0.09802492  0.57591051  0.15749350     0.03400
C693        C  0.09494257  0.58370155  0.19945381    -0.12600
C694        C  0.13044345  0.60083865  0.22022017     0.22700
C695        C  0.16951636  0.60934180  0.19932408    -0.13200
C696        C  0.17390874  0.59925018  0.15799092     0.04200
C697        C  0.12596789  0.61109520  0.26389478     0.26600
C698        C  0.11132237  0.65091858  0.27538827    -0.13900
C699        C  0.10438558  0.65996561  0.31664713     0.04700
C700        C  0.10858318  0.62809740  0.34619894    -0.09800
C701        C  0.12582571  0.58903885  0.33490099     0.05500
C702        C  0.13592479  0.58108211  0.29389432    -0.14200
Br703      Br  0.21698738  0.63529544  0.22774539    -0.06300
Br704      Br  0.04640829  0.55757268  0.12949444    -0.00700
Br705      Br  0.08992192  0.71623061  0.33212352    -0.00200
Br706      Br  0.16557948  0.53034626  0.27871532    -0.04600
Br707      Br  0.23113300  0.60522941  0.13355245    -0.00100
Br708      Br  0.04181561  0.57132444  0.22890292    -0.03900
Br709      Br  0.10092406  0.69294116  0.23432468    -0.04800
Br710      Br  0.13840695  0.54766987  0.37594554    -0.00800
C711        C  0.14083839  0.39230740  0.85624830     0.00600
C712        C  0.17338948  0.40971444  0.83102416     0.03400
C713        C  0.16968966  0.40778484  0.78848968    -0.12600
C714        C  0.13436946  0.38671124  0.77100151     0.22700
C715        C  0.10318835  0.36743157  0.79642518    -0.13200
C716        C  0.10524738  0.37191203  0.83883738     0.04200
C717        C  0.12817638  0.38582941  0.72615419     0.26600
C718        C  0.09497505  0.41038645  0.70833217    -0.13900
C719        C  0.08105499  0.40271640  0.66828690     0.04700
C720        C  0.10374522  0.37279179  0.64409843    -0.09800
C721        C  0.14231373  0.35376613  0.66052868     0.05500
C722        C  0.15249616  0.35817798  0.70195113    -0.14200
Br723      Br  0.05880394  0.33329105  0.77296868    -0.06300
Br724      Br  0.22231697  0.43766099  0.85487037    -0.00700
Br725      Br  0.03003129  0.43299535  0.64912620    -0.00200
Br726      Br  0.19883576  0.32512571  0.72621376    -0.04600
Br727      Br  0.05900153  0.35086718  0.87297688    -0.00100
Br728      Br  0.21295616  0.43412590  0.75455367    -0.03900
Br729      Br  0.06950188  0.45504089  0.73956551    -0.04800
Br730      Br  0.18410296  0.32382161  0.62703698    -0.00800
C731        C  0.10689290  0.36442776  0.36254847     0.00600
C732        C  0.12774925  0.33437306  0.33723073     0.03400
C733        C  0.13445710  0.34295301  0.29562090    -0.12600
C734        C  0.12027306  0.38103656  0.27877819     0.22700
C735        C  0.10114451  0.41142522  0.30392335    -0.13200
C736        C  0.09688178  0.40415399  0.34593689     0.04200
C737        C  0.12681233  0.38971854  0.23477975     0.26600
C738        C  0.16429817  0.41103578  0.22150477    -0.13900
C739        C  0.16968115  0.42094076  0.18007718     0.04700
C740        C  0.13915264  0.40702807  0.15137334    -0.09800
C741        C  0.10250772  0.38437024  0.16450710     0.05500
C742        C  0.09588688  0.37642829  0.20622289    -0.14200
Br743      Br  0.07734567  0.46173066  0.28013575    -0.06300
Br744      Br  0.14791741  0.28109867  0.35773544    -0.00700
Br745      Br  0.21786532  0.45513154  0.16290770    -0.00200
Br746      Br  0.04527342  0.34620569  0.22437837    -0.04600
Br747      Br  0.07911558  0.44988167  0.38031078    -0.00100
Br748      Br  0.16158180  0.30185346  0.26079647    -0.03900
Br749      Br  0.20927769  0.42456763  0.25997637    -0.04800
Br750      Br  0.06272504  0.36237838  0.12515739    -0.00800
loop_ 
_geom_bond_atom_site_label_1 
_geom_bond_atom_site_label_2 
_geom_bond_distance 
_geom_bond_site_symmetry_2 
_ccdc_geom_bond_type 
N1            N2   1.328       .  A
N1            N7   1.319       .  A
N1          Mn30   2.238   1_554  S
N2            C9   1.360       .  A
N3            N5   1.318       .  A
N3            N4   1.313       .  A
N3          Mn19   2.179   1_556  S
N4           C10   1.345       .  A
N5            N6   1.329       .  A
N5          Mn30   2.243       .  S
N6           C10   1.362       .  A
N7            N8   1.312       .  A
N7          Mn19   2.178       .  S
N8            C9   1.343       .  A
C9          C651   1.478       .  S
C10         C611   1.492       .  S
N11          N17   1.312       .  A
N11          N12   1.321       .  A
N11         Mn41   2.188       .  S
N12          C20   1.350       .  A
N13          N14   1.320       .  A
N13          N15   1.313       .  A
N13         Mn19   2.193       .  S
N14          C21   1.350       .  A
N15          N16   1.324       .  A
N15         Mn41   2.209   1_554  S
N16          C21   1.355       .  A
N17          N18   1.321       .  A
N17         Mn19   2.200   1_556  S
N18          C20   1.353       .  A
Mn19        Cl43   2.501   1_554  S
C20         C711   1.475       .  S
C21         C740   1.478       .  S
N22          N23   1.325       .  A
N22          N28   1.319       .  A
N22         Mn30   2.225       .  S
N23          C31   1.357       .  A
N24          N26   1.320       .  A
N24          N25   1.312       .  A
N24         Mn42   2.177   1_554  S
N25          C32   1.342       .  A
N26          N27   1.330       .  A
N26         Mn30   2.250   1_554  S
N27          C32   1.361       .  A
N28          N29   1.317       .  A
N28         Mn42   2.196       .  S
N29          C31   1.347       .  A
Mn30        Cl43   2.579       .  S
C31         C591   1.486       .  S
C32         C640   1.486       .  S
N33          N34   1.322       .  A
N33          N39   1.312       .  A
N33         Mn41   2.196   1_554  S
N34          C44   1.354       .  A
N35          N36   1.317       .  A
N35          N37   1.314       .  A
N35         Mn42   2.178       .  S
N36          C45   1.348       .  A
N37          N38   1.326       .  A
N37         Mn41   2.218       .  S
N38          C45   1.356       .  A
N39          N40   1.319       .  A
N39         Mn42   2.191   1_554  S
N40          C44   1.351       .  A
Mn41        Cl43   2.579       .  S
Mn42        Cl43   2.503       .  S
C44         C691   1.494       .  S
C45         C680   1.487       .  S
N46          N47   1.323       .  A
N46          N52   1.313       .  A
N46         Mn75   2.215   1_554  S
N47          C54   1.357       .  A
N48          N50   1.309       .  A
N48          N49   1.317       .  A
N48         Mn64   2.179       .  S
N49          C55   1.352       .  A
N50          N51   1.318       .  A
N50         Mn75   2.187       .  S
N51          C55   1.353       .  A
N52          N53   1.316       .  A
N52         Mn64   2.167   1_554  S
N53          C54   1.343       .  A
C54         C580   1.467       .  S
C55         C560   1.496       .  S
N56          N62   1.319       .  A
N56          N57   1.330       .  A
N56         Mn86   2.245       .  S
N57          C65   1.361       .  A
N58          N59   1.310       .  A
N58          N60   1.317       .  A
N58         Mn64   2.174   1_554  S
N59          C66   1.343       .  A
N60          N61   1.332       .  A
N60         Mn86   2.252   1_554  S
N61          C66   1.366       .  A
N62          N63   1.312       .  A
N62         Mn64   2.164       .  S
N63          C65   1.340       .  A
Mn64        Cl88   2.491       .  S
C65         C500   1.477       .  S
C66         C451   1.494       .  S
N67          N68   1.326       .  A
N67          N73   1.314       .  A
N67         Mn75   2.213       .  S
N68          C76   1.356       .  A
N69          N71   1.309       .  A
N69          N70   1.316       .  A
N69         Mn87   2.173   1_554  S
N70          C77   1.350       .  A
N71          N72   1.320       .  A
N71         Mn75   2.197   1_554  S
N72          C77   1.355       .  A
N73          N74   1.320       .  A
N73         Mn87   2.198       .  S
N74          C76   1.350       .  A
Mn75        Cl88   2.581       .  S
C76         C511   1.480       .  S
C77         C540   1.498       .  S
N78          N79   1.329       .  A
N78          N84   1.319       .  A
N78         Mn86   2.250   1_554  S
N79          C89   1.362       .  A
N80          N81   1.309       .  A
N80          N82   1.317       .  A
N80         Mn87   2.164       .  S
N81          C90   1.342       .  A
N82          N83   1.329       .  A
N82         Mn86   2.248       .  S
N83          C90   1.364       .  A
N84          N85   1.316       .  A
N84         Mn87   2.183   1_554  S
N85          C89   1.344       .  A
Mn86        Cl88   2.600       .  S
Mn87        Cl88   2.494       .  S
C89         C440   1.483       .  S
C90         C471   1.487       .  S
N91          N92   1.331       .  A
N91          N97   1.321       .  A
N91        Mn120   2.261   1_545  S
N92          C99   1.364       .  A
N93          N95   1.319       .  A
N93          N94   1.316       .  A
N93        Mn109   2.190       .  S
N94         C100   1.346       .  A
N95          N96   1.323       .  A
N95        Mn120   2.213       .  S
N96         C100   1.355       .  A
N97          N98   1.311       .  A
N97        Mn109   2.166   1_545  S
N98          C99   1.339       .  A
C99         C411   1.483       .  S
C100        C380   1.474       .  S
N101        N107   1.313       .  A
N101        N102   1.324       .  A
N101       Mn131   2.221   1_565  S
N102        C110   1.360       .  A
N103        N104   1.320       .  A
N103        N105   1.313       .  A
N103       Mn109   2.194   1_545  S
N104        C111   1.351       .  A
N105        N106   1.322       .  A
N105       Mn131   2.205       .  S
N106        C111   1.356       .  A
N107        N108   1.314       .  A
N107       Mn109   2.179       .  S
N108        C110   1.350       .  A
Mn109      Cl133   2.494   1_565  S
C110        C631   1.504       .  S
C111        C660   1.475       .  S
N112        N113   1.327       .  A
N112        N118   1.319       .  A
N112       Mn120   2.236       .  S
N113        C121   1.360       .  A
N114        N116   1.321       .  A
N114        N115   1.313       .  A
N114       Mn132   2.186       .  S
N115        C122   1.342       .  A
N116        N117   1.330       .  A
N116       Mn120   2.240   1_545  S
N117        C122   1.360       .  A
N118        N119   1.315       .  A
N118       Mn132   2.186   1_565  S
N119        C121   1.345       .  A
Mn120      Cl133   2.592   1_565  S
C121        C351   1.484       .  S
C122        C391   1.490       .  S
N123        N124   1.327       .  A
N123        N129   1.315       .  A
N123       Mn131   2.231       .  S
N124        C134   1.360       .  A
N125        N126   1.321       .  A
N125        N127   1.315       .  A
N125       Mn132   2.192   1_565  S
N126        C135   1.350       .  A
N127        N128   1.322       .  A
N127       Mn131   2.208   1_565  S
N128        C135   1.353       .  A
N129        N130   1.318       .  A
N129       Mn132   2.183       .  S
N130        C134   1.347       .  A
Mn131      Cl133   2.580       .  S
Mn132      Cl133   2.495       .  S
C134        C460   1.490       .  S
C135        C431   1.478       .  S
N136        N137   1.326       .  A
N136        N142   1.314       .  A
N136       Mn165   2.214   1_545  S
N137        C144   1.355       .  A
N138        N140   1.313       .  A
N138        N139   1.317       .  A
N138       Mn154   2.175       .  S
N139        C145   1.347       .  A
N140        N141   1.326       .  A
N140       Mn165   2.221       .  S
N141        C145   1.358       .  A
N142        N143   1.321       .  A
N142       Mn154   2.200   1_545  S
N143        C144   1.350       .  A
C144        C620   1.490       .  S
C145        C600   1.477       .  S
N146        N152   1.322       .  A
N146        N147   1.328       .  A
N146       Mn176   2.234       .  S
N147        C155   1.357       .  A
N148        N149   1.306       .  A
N148        N150   1.314       .  A
N148       Mn154   2.154   1_545  S
N149        C156   1.338       .  A
N150        N151   1.334       .  A
N150       Mn176   2.253   1_545  S
N151        C156   1.369       .  A
N152        N153   1.316       .  A
N152       Mn154   2.198       .  S
N153        C155   1.346       .  A
Mn154      Cl178   2.491       .  S
C155        C291   1.486       .  S
C156        C331   1.505       .  S
N157        N158   1.326       .  A
N157        N163   1.312       .  A
N157       Mn165   2.215       .  S
N158        C166   1.358       .  A
N159        N161   1.312       .  A
N159        N160   1.318       .  A
N159       Mn177   2.172   1_545  S
N160        C167   1.346       .  A
N161        N162   1.325       .  A
N161       Mn165   2.220   1_545  S
N162        C167   1.356       .  A
N163        N164   1.319       .  A
N163       Mn177   2.190       .  S
N164        C166   1.349       .  A
Mn165      Cl178   2.579       .  S
C166        C480   1.488       .  S
C167        C491   1.476       .  S
N168        N169   1.325       .  A
N168        N174   1.318       .  A
N168       Mn176   2.217   1_545  S
N169        C179   1.357       .  A
N170        N171   1.311       .  A
N170        N172   1.320       .  A
N170       Mn177   2.171       .  S
N171        C180   1.340       .  A
N172        N173   1.332       .  A
N172       Mn176   2.259       .  S
N173        C180   1.364       .  A
N174        N175   1.314       .  A
N174       Mn177   2.183   1_545  S
N175        C179   1.344       .  A
Mn176      Cl178   2.600       .  S
Mn177      Cl178   2.489       .  S
C179        C311   1.472       .  S
C180        C271   1.487       .  S
N181        N182   1.326       .  A
N181        N187   1.320       .  A
N181       Mn210   2.231   1_455  S
N182        C189   1.357       .  A
N183        N185   1.318       .  A
N183        N184   1.311       .  A
N183       Mn199   2.170       .  S
N184        C190   1.343       .  A
N185        N186   1.330       .  A
N185       Mn210   2.246   1_455  S
N186        C190   1.362       .  A
N187        N188   1.313       .  A
N187       Mn199   2.180       .  S
N188        C189   1.343       .  A
C189        C420   1.468       .  S
C190        C340   1.483       .  S
N191        N197   1.311       .  A
N191        N192   1.326       .  A
N191       Mn221   2.219   1_455  S
N192        C200   1.360       .  A
N193        N194   1.319       .  A
N193        N195   1.311       .  A
N193       Mn199   2.192       .  S
N194        C201   1.352       .  A
N195        N196   1.320       .  A
N195       Mn221   2.195   1_455  S
N196        C201   1.356       .  A
N197        N198   1.318       .  A
N197       Mn199   2.194       .  S
N198        C200   1.352       .  A
Mn199      Cl223   2.498   1_455  S
C200        C720   1.508       .  S
C201        C731   1.497       .  S
N202        N203   1.326       .  A
N202        N208   1.320       .  A
N202       Mn210   2.221       .  S
N203        C211   1.357       .  A
N204        N206   1.320       .  A
N204        N205   1.316       .  A
N204       Mn222   2.190       .  S
N205        C212   1.345       .  A
N206        N207   1.331       .  A
N206       Mn210   2.244       .  S
N207        C212   1.361       .  A
N208        N209   1.312       .  A
N208       Mn222   2.177       .  S
N209        C211   1.341       .  A
Mn210      Cl223   2.600       .  S
C211        C320   1.476       .  S
C212        C400   1.491       .  S
N213        N214   1.322       .  A
N213        N219   1.312       .  A
N213       Mn221   2.212       .  S
N214        C224   1.358       .  A
N215        N216   1.317       .  A
N215        N217   1.313       .  A
N215       Mn222   2.184       .  S
N216        C225   1.348       .  A
N217        N218   1.320       .  A
N217       Mn221   2.181       .  S
N218        C225   1.350       .  A
N219        N220   1.318       .  A
N219       Mn222   2.179       .  S
N220        C224   1.350       .  A
Mn221      Cl223   2.587       .  S
Mn222      Cl223   2.486       .  S
C224        C571   1.492       .  S
C225        C551   1.460       .  S
N226        N227   1.324       .  A
N226        N232   1.312       .  A
N226       Mn255   2.212       .  S
N227        C234   1.357       .  A
N228        N230   1.313       .  A
N228        N229   1.320       .  A
N228       Mn244   2.195       .  S
N229        C235   1.352       .  A
N230        N231   1.320       .  A
N230       Mn255   2.193       .  S
N231        C235   1.351       .  A
N232        N233   1.319       .  A
N232       Mn244   2.185       .  S
N233        C234   1.348       .  A
C234        C700   1.478       .  S
C235        C671   1.471       .  S
N236        N242   1.320       .  A
N236        N237   1.329       .  A
N236       Mn266   2.246       .  S
N237        C245   1.360       .  A
N238        N239   1.312       .  A
N238        N240   1.320       .  A
N238       Mn244   2.182       .  S
N239        C246   1.342       .  A
N240        N241   1.329       .  A
N240       Mn266   2.236       .  S
N241        C246   1.360       .  A
N242        N243   1.317       .  A
N242       Mn244   2.191       .  S
N243        C245   1.345       .  A
Mn244      Cl268   2.495       .  S
C245        C300   1.487       .  S
C246        C371   1.481       .  S
N247        N248   1.324       .  A
N247        N253   1.310       .  A
N247       Mn255   2.217   1_655  S
N248        C256   1.359       .  A
N249        N251   1.312       .  A
N249        N250   1.319       .  A
N249       Mn267   2.182       .  S
N250        C257   1.348       .  A
N251        N252   1.322       .  A
N251       Mn255   2.200   1_655  S
N252        C257   1.355       .  A
N253        N254   1.319       .  A
N253       Mn267   2.188       .  S
N254        C256   1.352       .  A
Mn255      Cl268   2.588       .  S
C256        C520   1.508       .  S
C257        C531   1.469       .  S
N258        N259   1.332       .  A
N258        N264   1.319       .  A
N258       Mn266   2.253   1_655  S
N259        C269   1.364       .  A
N260        N261   1.316       .  A
N260        N262   1.320       .  A
N260       Mn267   2.195       .  S
N261        C270   1.345       .  A
N262        N263   1.326       .  A
N262       Mn266   2.224   1_655  S
N263        C270   1.357       .  A
N264        N265   1.311       .  A
N264       Mn267   2.175       .  S
N265        C269   1.340       .  A
Mn266      Cl268   2.595       .  S
Mn267      Cl268   2.494   1_655  S
C269        C360   1.489       .  S
C270        C280   1.478       .  S
C271        C272   1.410       .  A
C271        C276   1.420       .  A
C272        C273   1.416       .  A
C272       Br284   1.926       .  S
C273        C274   1.413       .  A
C273       Br288   1.927       .  S
C274        C277   1.489       .  S
C274        C275   1.405       .  A
C275        C276   1.404       .  A
C275       Br283   1.935       .  S
C276       Br287   1.936       .  S
C277        C278   1.411       .  A
C277        C282   1.411       .  A
C278        C279   1.407       .  A
C278       Br289   1.929       .  S
C279        C280   1.407       .  A
C279       Br285   1.929       .  S
C280        C281   1.413       .  A
C281        C282   1.411       .  A
C281       Br290   1.930       .  S
C282       Br286   1.930       .  S
C291        C292   1.410       .  A
C291        C296   1.417       .  A
C292        C293   1.414       .  A
C292       Br304   1.927       .  S
C293        C294   1.413       .  A
C293       Br308   1.928       .  S
C294        C297   1.490       .  S
C294        C295   1.406       .  A
C295        C296   1.405       .  A
C295       Br303   1.931       .  S
C296       Br307   1.934       .  S
C297        C298   1.410       .  A
C297        C302   1.408       .  A
C298        C299   1.413       .  A
C298       Br309   1.929       .  S
C299        C300   1.415       .  A
C299       Br305   1.929       .  S
C300        C301   1.412       .  A
C301        C302   1.408       .  A
C301       Br310   1.923       .  S
C302       Br306   1.932       .  S
C311        C312   1.410       .  A
C311        C316   1.415       .  A
C312        C313   1.403       .  A
C312       Br324   1.928       .  S
C313        C314   1.407       .  A
C313       Br328   1.933       .  S
C314        C317   1.476       .  S
C314        C315   1.406       .  A
C315        C316   1.407       .  A
C315       Br323   1.931       .  S
C316       Br327   1.931       .  S
C317        C318   1.403       .  A
C317        C322   1.410       .  A
C318        C319   1.401       .  A
C318       Br329   1.935       .  S
C319        C320   1.420       .  A
C319       Br325   1.937       .  S
C320        C321   1.407       .  A
C321        C322   1.408       .  A
C321       Br330   1.927       .  S
C322       Br326   1.927       .  S
C331        C332   1.428       .  A
C331        C336   1.419       .  A
C332        C333   1.401       .  A
C332       Br344   1.940       .  S
C333        C334   1.400       .  A
C333       Br348   1.935       .  S
C334        C337   1.491       .  S
C334        C335   1.413       .  A
C335        C336   1.418       .  A
C335       Br343   1.929       .  S
C336       Br347   1.928       .  S
C337        C338   1.412       .  A
C337        C342   1.410       .  A
C338        C339   1.414       .  A
C338       Br349   1.930       .  S
C339        C340   1.413       .  A
C339       Br345   1.925       .  S
C340        C341   1.411       .  A
C341        C342   1.404       .  A
C341       Br350   1.933       .  S
C342       Br346   1.931       .  S
C351        C352   1.415       .  A
C351        C356   1.412       .  A
C352        C353   1.411       .  A
C352       Br364   1.929       .  S
C353        C354   1.410       .  A
C353       Br368   1.931       .  S
C354        C357   1.492       .  S
C354        C355   1.410       .  A
C355        C356   1.409       .  A
C355       Br363   1.930       .  S
C356       Br367   1.933       .  S
C357        C358   1.413       .  A
C357        C362   1.405       .  A
C358        C359   1.415       .  A
C358       Br369   1.927       .  S
C359        C360   1.409       .  A
C359       Br365   1.926       .  S
C360        C361   1.421       .  A
C361        C362   1.405       .  A
C361       Br370   1.938       .  S
C362       Br366   1.934       .  S
C371        C372   1.420       .  A
C371        C376   1.409       .  A
C372        C373   1.402       .  A
C372       Br384   1.937       .  S
C373        C374   1.404       .  A
C373       Br388   1.935       .  S
C374        C377   1.481       .  S
C374        C375   1.411       .  A
C375        C376   1.412       .  A
C375       Br383   1.928       .  S
C376       Br387   1.926       .  S
C377        C378   1.406       .  A
C377        C382   1.409       .  A
C378        C379   1.406       .  A
C378       Br389   1.930       .  S
C379        C380   1.415       .  A
C379       Br385   1.933       .  S
C380        C381   1.409       .  A
C381        C382   1.406       .  A
C381       Br390   1.930       .  S
C382       Br386   1.930       .  S
C391        C392   1.421       .  A
C391        C396   1.410       .  A
C392        C393   1.406       .  A
C392       Br404   1.936       .  S
C393        C394   1.406       .  A
C393       Br408   1.932       .  S
C394        C397   1.494       .  S
C394        C395   1.413       .  A
C395        C396   1.415       .  A
C395       Br403   1.925       .  S
C396       Br407   1.927       .  S
C397        C398   1.410       .  A
C397        C402   1.409       .  A
C398        C399   1.416       .  A
C398       Br409   1.930       .  S
C399        C400   1.418       .  A
C399       Br405   1.929       .  S
C400        C401   1.412       .  A
C401        C402   1.409       .  A
C401       Br410   1.931       .  S
C402       Br406   1.931       .  S
C411        C412   1.421       .  A
C411        C416   1.408       .  A
C412        C413   1.404       .  A
C412       Br424   1.935       .  S
C413        C414   1.403       .  A
C413       Br428   1.935       .  S
C414        C417   1.483       .  S
C414        C415   1.412       .  A
C415        C416   1.412       .  A
C415       Br423   1.928       .  S
C416       Br427   1.926       .  S
C417        C418   1.412       .  A
C417        C422   1.407       .  A
C418        C419   1.408       .  A
C418       Br429   1.926       .  S
C419        C420   1.404       .  A
C419       Br425   1.929       .  S
C420        C421   1.409       .  A
C421        C422   1.404       .  A
C421       Br430   1.924       .  S
C422       Br426   1.932       .  S
C431        C432   1.411       .  A
C431        C436   1.406       .  A
C432        C433   1.410       .  A
C432       Br444   1.931       .  S
C433        C434   1.410       .  A
C433       Br448   1.927       .  S
C434        C437   1.493       .  S
C434        C435   1.413       .  A
C435        C436   1.409       .  A
C435       Br443   1.929       .  S
C436       Br447   1.929       .  S
C437        C438   1.411       .  A
C437        C442   1.408       .  A
C438        C439   1.413       .  A
C438       Br449   1.929       .  S
C439        C440   1.410       .  A
C439       Br445   1.928       .  S
C440        C441   1.412       .  A
C441        C442   1.409       .  A
C441       Br450   1.925       .  S
C442       Br446   1.928       .  S
C451        C452   1.418       .  A
C451        C456   1.414       .  A
C452        C453   1.407       .  A
C452       Br464   1.934       .  S
C453        C454   1.406       .  A
C453       Br468   1.930       .  S
C454        C457   1.494       .  S
C454        C455   1.410       .  A
C455        C456   1.414       .  A
C455       Br463   1.917       .  S
C456       Br467   1.927       .  S
C457        C458   1.412       .  A
C457        C462   1.406       .  A
C458        C459   1.412       .  A
C458       Br469   1.927       .  S
C459        C460   1.411       .  A
C459       Br465   1.930       .  S
C460        C461   1.420       .  A
C461        C462   1.411       .  A
C461       Br470   1.932       .  S
C462       Br466   1.930       .  S
C471        C472   1.412       .  A
C471        C476   1.417       .  A
C472        C473   1.411       .  A
C472       Br484   1.928       .  S
C473        C474   1.411       .  A
C473       Br488   1.926       .  S
C474        C477   1.489       .  S
C474        C475   1.408       .  A
C475        C476   1.407       .  A
C475       Br483   1.932       .  S
C476       Br487   1.936       .  S
C477        C478   1.406       .  A
C477        C482   1.411       .  A
C478        C479   1.408       .  A
C478       Br489   1.931       .  S
C479        C480   1.419       .  A
C479       Br485   1.933       .  S
C480        C481   1.412       .  A
C481        C482   1.411       .  A
C481       Br490   1.930       .  S
C482       Br486   1.929       .  S
C491        C492   1.405       .  A
C491        C496   1.411       .  A
C492        C493   1.409       .  A
C492       Br504   1.928       .  S
C493        C494   1.413       .  A
C493       Br508   1.926       .  S
C494        C497   1.487       .  S
C494        C495   1.408       .  A
C495        C496   1.406       .  A
C495       Br503   1.932       .  S
C496       Br507   1.924       .  S
C497        C498   1.410       .  A
C497        C502   1.409       .  A
C498        C499   1.411       .  A
C498       Br509   1.931       .  S
C499        C500   1.413       .  A
C499       Br505   1.926       .  S
C500        C501   1.409       .  A
C501        C502   1.406       .  A
C501       Br510   1.930       .  S
C502       Br506   1.930       .  S
C511        C512   1.409       .  A
C511        C516   1.410       .  A
C512        C513   1.411       .  A
C512       Br524   1.926       .  S
C513        C514   1.411       .  A
C513       Br528   1.929       .  S
C514        C517   1.492       .  S
C514        C515   1.409       .  A
C515        C516   1.409       .  A
C515       Br523   1.926       .  S
C516       Br527   1.930       .  S
C517        C518   1.404       .  A
C517        C522   1.408       .  A
C518        C519   1.411       .  A
C518       Br529   1.934       .  S
C519        C520   1.427       .  A
C519       Br525   1.933       .  S
C520        C521   1.422       .  A
C521        C522   1.412       .  A
C521       Br530   1.935       .  S
C522       Br526   1.928       .  S
C531        C532   1.407       .  A
C531        C536   1.407       .  A
C532        C533   1.402       .  A
C532       Br544   1.923       .  S
C533        C534   1.407       .  A
C533       Br548   1.932       .  S
C534        C537   1.476       .  S
C534        C535   1.408       .  A
C535        C536   1.407       .  A
C535       Br543   1.927       .  S
C536       Br547   1.926       .  S
C537        C538   1.402       .  A
C537        C542   1.401       .  A
C538        C539   1.408       .  A
C538       Br549   1.935       .  S
C539        C540   1.429       .  A
C539       Br545   1.939       .  S
C540        C541   1.426       .  A
C541        C542   1.404       .  A
C541       Br550   1.935       .  S
C542       Br546   1.935       .  S
C551        C552   1.403       .  A
C551        C556   1.410       .  A
C552        C553   1.403       .  A
C552       Br564   1.929       .  S
C553        C554   1.408       .  A
C553       Br568   1.920       .  S
C554        C557   1.477       .  S
C554        C555   1.406       .  A
C555        C556   1.402       .  A
C555       Br563   1.927       .  S
C556       Br567   1.932       .  S
C557        C558   1.401       .  A
C557        C562   1.399       .  A
C558        C559   1.404       .  A
C558       Br569   1.921       .  S
C559        C560   1.425       .  A
C559       Br565   1.939       .  S
C560        C561   1.427       .  A
C561        C562   1.406       .  A
C561       Br570   1.933       .  S
C562       Br566   1.933       .  S
C571        C572   1.417       .  A
C571        C576   1.421       .  A
C572        C573   1.402       .  A
C572       Br584   1.918       .  S
C573        C574   1.402       .  A
C573       Br588   1.935       .  S
C574        C577   1.478       .  S
C574        C575   1.405       .  A
C575        C576   1.410       .  A
C575       Br583   1.931       .  S
C576       Br587   1.933       .  S
C577        C578   1.407       .  A
C577        C582   1.410       .  A
C578        C579   1.404       .  A
C578       Br589   1.927       .  S
C579        C580   1.409       .  A
C579       Br585   1.930       .  S
C580        C581   1.408       .  A
C581        C582   1.406       .  A
C581       Br590   1.930       .  S
C582       Br586   1.930       .  S
C591        C592   1.417       .  A
C591        C596   1.415       .  A
C592        C593   1.409       .  A
C592       Br604   1.933       .  S
C593        C594   1.408       .  A
C593       Br608   1.930       .  S
C594        C597   1.485       .  S
C594        C595   1.405       .  A
C595        C596   1.406       .  A
C595       Br603   1.933       .  S
C596       Br607   1.921       .  S
C597        C598   1.410       .  A
C597        C602   1.406       .  A
C598        C599   1.407       .  A
C598       Br609   1.929       .  S
C599        C600   1.409       .  A
C599       Br605   1.928       .  S
C600        C601   1.410       .  A
C601        C602   1.407       .  A
C601       Br610   1.919       .  S
C602       Br606   1.929       .  S
C611        C612   1.415       .  A
C611        C616   1.416       .  A
C612        C613   1.415       .  A
C612       Br624   1.929       .  S
C613        C614   1.411       .  A
C613       Br628   1.920       .  S
C614        C617   1.494       .  S
C614        C615   1.407       .  A
C615        C616   1.405       .  A
C615       Br623   1.933       .  S
C616       Br627   1.933       .  S
C617        C618   1.406       .  A
C617        C622   1.411       .  A
C618        C619   1.409       .  A
C618       Br629   1.930       .  S
C619        C620   1.417       .  A
C619       Br625   1.926       .  S
C620        C621   1.410       .  A
C621        C622   1.413       .  A
C621       Br630   1.929       .  S
C622       Br626   1.922       .  S
C631        C632   1.427       .  A
C631        C636   1.424       .  A
C632        C633   1.408       .  A
C632       Br644   1.938       .  S
C633        C634   1.404       .  A
C633       Br648   1.934       .  S
C634        C637   1.489       .  S
C634        C635   1.405       .  A
C635        C636   1.412       .  A
C635       Br643   1.926       .  S
C636       Br647   1.932       .  S
C637        C638   1.410       .  A
C637        C642   1.405       .  A
C638        C639   1.414       .  A
C638       Br649   1.924       .  S
C639        C640   1.410       .  A
C639       Br645   1.925       .  S
C640        C641   1.419       .  A
C641        C642   1.404       .  A
C641       Br650   1.934   1_554  S
C642       Br646   1.932       .  S
C651        C652   1.413       .  A
C651        C656   1.411       .  A
C652        C653   1.409       .  A
C652       Br664   1.927       .  S
C653        C654   1.409       .  A
C653       Br668   1.929       .  S
C654        C657   1.484       .  S
C654        C655   1.407       .  A
C655        C656   1.405       .  A
C655       Br663   1.930       .  S
C656       Br667   1.927       .  S
C657        C658   1.412       .  A
C657        C662   1.406       .  A
C658        C659   1.410       .  A
C658       Br669   1.930       .  S
C659        C660   1.408       .  A
C659       Br665   1.926       .  S
C660        C661   1.408       .  A
C661        C662   1.404       .  A
C661       Br670   1.924       .  S
C662       Br666   1.928       .  S
C671        C672   1.407       .  A
C671        C676   1.406       .  A
C672        C673   1.405       .  A
C672       Br684   1.929       .  S
C673        C674   1.411       .  A
C673       Br688   1.931       .  S
C674        C677   1.489       .  S
C674        C675   1.413       .  A
C675        C676   1.407       .  A
C675       Br683   1.922       .  S
C676       Br687   1.931       .  S
C677        C678   1.407       .  A
C677        C682   1.413       .  A
C678        C679   1.407       .  A
C678       Br689   1.932       .  S
C679        C680   1.416       .  A
C679       Br685   1.927       .  S
C680        C681   1.409       .  A
C681        C682   1.409       .  A
C681       Br690   1.928       .  S
C682       Br686   1.928       .  S
C691        C692   1.418       .  A
C691        C696   1.424       .  A
C692        C693   1.409       .  A
C692       Br704   1.932       .  S
C693        C694   1.407       .  A
C693       Br708   1.930       .  S
C694        C697   1.483       .  S
C694        C695   1.403       .  A
C695        C696   1.407       .  A
C695       Br703   1.933       .  S
C696       Br707   1.931       .  S
C697        C698   1.406       .  A
C697        C702   1.408       .  A
C698        C699   1.406       .  A
C698       Br709   1.930       .  S
C699        C700   1.414       .  A
C699       Br705   1.931       .  S
C700        C701   1.409       .  A
C701        C702   1.408       .  A
C701       Br710   1.926       .  S
C702       Br706   1.925       .  S
C711        C712   1.411       .  A
C711        C716   1.405       .  A
C712        C713   1.408       .  A
C712       Br724   1.929       .  S
C713        C714   1.410       .  A
C713       Br728   1.927       .  S
C714        C717   1.490       .  S
C714        C715   1.411       .  A
C715        C716   1.407       .  A
C715       Br723   1.926       .  S
C716       Br727   1.927       .  S
C717        C718   1.405       .  A
C717        C722   1.402       .  A
C718        C719   1.412       .  A
C718       Br729   1.927       .  S
C719        C720   1.425       .  A
C719       Br725   1.932       .  S
C720        C721   1.427       .  A
C721        C722   1.409       .  A
C721       Br730   1.934       .  S
C722       Br726   1.931       .  S
C731        C732   1.424       .  A
C731        C736   1.417       .  A
C732        C733   1.410       .  A
C732       Br744   1.933       .  S
C733        C734   1.406       .  A
C733       Br748   1.933       .  S
C734        C737   1.486       .  S
C734        C735   1.406       .  A
C735        C736   1.407       .  A
C735       Br743   1.928       .  S
C736       Br747   1.934       .  S
C737        C738   1.409       .  A
C737        C742   1.410       .  A
C738        C739   1.408       .  A
C738       Br749   1.930       .  S
C739        C740   1.411       .  A
C739       Br745   1.930       .  S
C740        C741   1.409       .  A
C741        C742   1.409       .  A
C741       Br750   1.927       .  S
C742       Br746   1.928       .  S
