geometry optimzed in LAMMPS
_audit_creation_date              2020-11-30 
_audit_creation_method            'lammps2cif' 
_symmetry_space_group_name_H-M    'P1' 
_symmetry_Int_Tables_number       1 
_symmetry_cell_setting            triclinic 
loop_ 
_symmetry_equiv_pos_as_xyz 
  x,y,z 
_cell_length_a                    43.68220075688161 
_cell_length_b                    43.69551398786006 
_cell_length_c                    43.76670822034504 
_cell_angle_alpha                 90.21831951975928 
_cell_angle_beta                  89.90295708087923 
_cell_angle_gamma                 89.76833911128699 
loop_ 
_atom_site_label 
_atom_site_type_symbol 
_atom_site_fract_x 
_atom_site_fract_y 
_atom_site_fract_z 
_atom_site_charge 
In1        In  0.26390355  0.70999453  0.91577379     1.36870
C2          C  0.26504214  0.67217958  0.86793456     0.78450
O3          O  0.27683438  0.66911249  0.94479333    -0.59990
O4          O  0.23240711  0.68858778  0.94871183    -0.50900
C5          C  0.30758965  0.74419538  0.94086784     0.71120
O6          O  0.31002710  0.73348953  0.91412561    -0.45760
C7          C  0.22042469  0.74923084  0.89921087     0.75820
O8          O  0.28836933  0.68745710  0.87562501    -0.57620
O9          O  0.22238382  0.73797038  0.92549680    -0.47710
O10         O  0.24205569  0.67631789  0.88482978    -0.54050
C11         C  0.25082364  0.66823858  0.95748165     0.86000
O12         O  0.28316864  0.73712546  0.95420130    -0.55940
O13         O  0.24286561  0.74309623  0.88205848    -0.59240
In14       In  0.06615531  0.78828587  0.79688527     1.36870
C15         C  0.11182267  0.78830338  0.83694646     0.78450
O16         O  0.03750341  0.79985944  0.83805903    -0.59990
O17         O  0.02711674  0.75971144  0.81272400    -0.50900
C18         C  0.04072689  0.83092470  0.76213107     0.71120
O19         O  0.06223787  0.83673124  0.78050297    -0.45760
C20         C  0.09375890  0.74842297  0.76025605     0.75820
O21         O  0.10656177  0.81133910  0.82025457    -0.57620
O22         O  0.07023609  0.74204464  0.77560809    -0.47710
O23         O  0.09321240  0.76676564  0.83323914    -0.54050
C24         C  0.02161557  0.77585173  0.83608758     0.86000
O25         O  0.03282324  0.80324253  0.76148493    -0.55940
O26         O  0.10171441  0.77610900  0.76128349    -0.59240
In27       In  0.19145498  0.59367108  0.71459043     1.36870
C28         C  0.16036273  0.64575264  0.71031534     0.78450
O29         O  0.15677877  0.55512823  0.71131771    -0.59990
O30         O  0.16599052  0.57522241  0.75450437    -0.50900
C31         C  0.22182202  0.56774152  0.66849720     0.71120
O32         O  0.19624241  0.58062635  0.66465467    -0.45760
C33         C  0.23000326  0.60896635  0.75890572     0.75820
O34         O  0.18828843  0.64415894  0.70320908    -0.57620
O35         O  0.21907637  0.58237379  0.75616229    -0.47710
O36         O  0.14763204  0.62035593  0.71429156    -0.54050
C37         C  0.15030234  0.55639168  0.73944009     0.86000
O38         O  0.23178090  0.56871524  0.69536365    -0.55940
O39         O  0.22320555  0.62675848  0.73729215    -0.59240
In40       In  0.63924125  0.96562184  0.97192782     1.36870
C41         C  0.58635343  0.93571881  0.97125429     0.78450
O42         O  0.65964113  0.91849085  0.96530909    -0.59990
O43         O  0.67687462  0.94635456  0.00100146    -0.50900
C44         C  0.66876511  0.99704326  0.92865666     0.71120
O45         O  0.64600677  0.98024558  0.92286116    -0.45760
C46         C  0.62004051  0.01026945  0.00894326     0.75820
O47         O  0.59960222  0.94351580  0.94677258    -0.57620
O48         O  0.63929676  0.99007797  0.01652776    -0.47710
O49         O  0.60036064  0.94283579  0.99535863    -0.54050
C50         C  0.67753820  0.92075321  0.98773588     0.86000
O51         O  0.67620853  0.99706447  0.95638345    -0.55940
O52         O  0.61101366  0.00803361  0.98162103    -0.59240
In53       In  0.52450307  0.04253498  0.16322567     1.36870
C54         C  0.55860380  0.05313409  0.11352017     0.78450
O55         O  0.56494490  0.05011714  0.19431404    -0.59990
O56         O  0.53925268  0.00934505  0.19873840    -0.50900
C57         C  0.49126542  0.08355017  0.19401755     0.71120
O58         O  0.51136804  0.09087593  0.17467438    -0.45760
C59         C  0.49178899  0.99894422  0.13666507     0.75820
O60         O  0.53245058  0.06494741  0.11717164    -0.57620
O61         O  0.51399059  0.99382573  0.15421140    -0.47710
O62         O  0.56780117  0.03815597  0.13623022    -0.54050
C63         C  0.56195450  0.02470423  0.20771144     0.86000
O64         O  0.48774335  0.05511722  0.19668974    -0.55940
O65         O  0.48436667  0.02674442  0.13436779    -0.59240
In66       In  0.44250191  0.84159841  0.04117705     1.36870
C67         C  0.44461519  0.89226200  0.07468522     0.78450
O68         O  0.43517440  0.81133948  0.08223309    -0.59990
O69         O  0.47877813  0.81105264  0.06015773    -0.50900
C70         C  0.39947584  0.81232079  0.00952442     0.71120
O71         O  0.39321187  0.82941349  0.03211808    -0.45760
C72         C  0.47919583  0.86781205  0.00092149     0.75820
O73         O  0.42444146  0.88936942  0.05418192    -0.57620
O74         O  0.48615302  0.84296560  0.01393440    -0.47710
O75         O  0.45913991  0.86822249  0.08042130    -0.54050
C76         C  0.46270101  0.80218403  0.08244088     0.86000
O77         O  0.42770095  0.81034373  0.00404076    -0.55940
O78         O  0.45228354  0.87700701  0.00599900    -0.59240
In79       In  0.39431368  0.21844471  0.29527004     1.36870
C80         C  0.34311924  0.22824864  0.32616171     0.78450
O81         O  0.41577870  0.21092077  0.34097173    -0.59990
O82         O  0.43298053  0.24676319  0.31281094    -0.50900
C83         C  0.42331878  0.17379168  0.26598696     0.71120
O84         O  0.40347694  0.16822217  0.28637308    -0.45760
C85         C  0.37047507  0.25254942  0.25178435     0.75820
O86         O  0.34859599  0.20221722  0.31426722    -0.57620
O87         O  0.39337436  0.26103565  0.26726700    -0.47710
O88         O  0.36471303  0.24709029  0.32404982    -0.54050
C89         C  0.43352986  0.23351979  0.33840866     0.86000
O90         O  0.42729121  0.20183404  0.26090866    -0.55940
O91         O  0.36229382  0.22524045  0.25629738    -0.59240
In92       In  0.18723956  0.30186049  0.41292373     1.36870
C93         C  0.17316350  0.33170476  0.36146379     0.78450
O94         O  0.18095776  0.34393848  0.44212179    -0.59990
O95         O  0.21954965  0.31550766  0.45012710    -0.50900
C96         C  0.14814196  0.26695777  0.44348287     0.71120
O97         O  0.13979292  0.29087269  0.42966650    -0.45760
C98         C  0.23374833  0.27260219  0.38691935     0.75820
O99         O  0.16519863  0.30437423  0.36598126    -0.57620
O100        O  0.23650088  0.29754553  0.40116178    -0.47710
O101        O  0.18542485  0.34413051  0.38430512    -0.54050
C102        C  0.20545945  0.33989325  0.45686440     0.86000
O103        O  0.17619093  0.26080275  0.44112806    -0.55940
O104        O  0.20719073  0.26140328  0.38725646    -0.59240
In105      In  0.26595219  0.40675929  0.22102321     1.36870
C106        C  0.30025078  0.35603668  0.21541430     0.78450
O107        O  0.30148374  0.44323395  0.21395310    -0.59990
O108        O  0.28668711  0.43363797  0.25909444    -0.50900
C109        C  0.23760246  0.43765103  0.17708389     0.71120
O110        O  0.25869841  0.41859357  0.17136106    -0.45760
C111        C  0.22086910  0.38748000  0.25758292     0.75820
O112        O  0.27502154  0.35925608  0.20187745    -0.57620
O113        O  0.23959266  0.40812032  0.26490945    -0.47710
O114        O  0.30874670  0.37928292  0.23003310    -0.54050
C115        C  0.30374522  0.44951569  0.24208549     0.86000
O116        O  0.23122253  0.44039934  0.20498069    -0.55940
O117        O  0.22532194  0.37659660  0.23125019    -0.59240
In118      In  0.69246165  0.91159240  0.28848402     1.36870
C119        C  0.66205310  0.85875680  0.29285413     0.78450
O120        O  0.65027372  0.94018861  0.29770774    -0.59990
O121        O  0.67434419  0.94662080  0.25611289    -0.50900
C122        C  0.72265054  0.94192109  0.33178012     0.71120
O123        O  0.69998770  0.92514801  0.33785606    -0.45760
C124        C  0.73474417  0.89355821  0.24798923     0.75820
O125        O  0.68467780  0.86481752  0.30965947    -0.57620
O126        O  0.71304523  0.91160619  0.24175364    -0.47710
O127        O  0.65441290  0.87994690  0.27505310    -0.54050
C128        C  0.65177327  0.95416779  0.27254021     0.86000
O129        O  0.72960525  0.94286753  0.30393628    -0.55940
O130        O  0.73471514  0.88463954  0.27537172    -0.59240
In131      In  0.77050758  0.79438835  0.09758418     1.36870
C132        C  0.78111659  0.83275779  0.14399146     0.78450
O133        O  0.77351983  0.82659347  0.05744937    -0.59990
O134        O  0.72989744  0.81280463  0.07275660    -0.50900
C135        C  0.81356787  0.76058362  0.07045185     0.71120
O136        O  0.81785349  0.78804635  0.07815072    -0.45760
C137        C  0.72901486  0.76027322  0.12484070     0.75820
O138        O  0.79508686  0.80752412  0.14133211    -0.57620
O139        O  0.72853857  0.76505188  0.09643447    -0.47710
O140        O  0.76431584  0.83908742  0.12155970    -0.54050
C141        C  0.74489573  0.82887141  0.05423953     0.86000
O142        O  0.78782645  0.75013073  0.07783072    -0.55940
O143        O  0.75230407  0.77017459  0.13861067    -0.59240
In144      In  0.56720433  0.71764132  0.21794101     1.36870
C145        C  0.61677234  0.72249435  0.18342376     0.78450
O146        O  0.53926751  0.71346922  0.17483485    -0.59990
O147        O  0.53040991  0.75032766  0.20564643    -0.50900
C148        C  0.53892594  0.67244463  0.24627976     0.71120
O149        O  0.55738570  0.66743311  0.22452050    -0.45760
C150        C  0.59420718  0.75306734  0.25909030     0.75820
O151        O  0.61248822  0.69904949  0.19979505    -0.57620
O152        O  0.56999826  0.76083291  0.24542860    -0.47710
O153        O  0.59436220  0.74058756  0.18227075    -0.54050
C154        C  0.52504292  0.73822848  0.17998042     0.86000
O155        O  0.53583658  0.70016604  0.25355305    -0.55940
O156        O  0.60257888  0.72583671  0.25415210    -0.59240
In157      In  0.94062272  0.96520315  0.66510060     1.36870
C158        C  0.90440434  0.96264423  0.61645145     0.78450
O159        O  0.90312301  0.95579922  0.69901286    -0.59990
O160        O  0.92341244  0.99982720  0.69856549    -0.50900
C161        C  0.97480149  0.92214140  0.69125364     0.71120
O162        O  0.95210319  0.91573774  0.67468115    -0.45760
C163        C  0.97350247  0.01112422  0.64308339     0.75820
O164        O  0.93195869  0.95406767  0.61513708    -0.57620
O165        O  0.95721241  0.01333340  0.66680865    -0.47710
O166        O  0.89471341  0.96737756  0.64308456    -0.54050
C167        C  0.90326342  0.98263096  0.70992649     0.86000
O168        O  0.98062592  0.95022903  0.69274506    -0.55940
O169        O  0.97483924  0.98451688  0.63179916    -0.59240
In170      In  0.01734983  0.16307000  0.53935514     1.36870
C171        C  0.02043253  0.11447850  0.57547723     0.78450
O172        O  0.01678017  0.19100648  0.58251180    -0.59990
O173        O  0.98123015  0.19757258  0.55013717    -0.50900
C174        C  0.06236141  0.19305685  0.51147528     0.71120
O175        O  0.06749597  0.16931145  0.52696860    -0.45760
C176        C  0.97556369  0.14020790  0.50149080     0.75820
O177        O  0.02349082  0.11210427  0.54695369    -0.57620
O178        O  0.96913862  0.15741328  0.52375496    -0.47710
O179        O  0.02080753  0.14148637  0.58545262    -0.54050
C180        C  0.99185035  0.20431494  0.57611476     0.86000
O181        O  0.03469206  0.20061191  0.50996045    -0.55940
O182        O  0.00386024  0.13551499  0.49770582    -0.59240
In183      In  0.81902544  0.04349355  0.46472506     1.36870
C184        C  0.86922007  0.07753728  0.45853484     0.78450
O185        O  0.79062158  0.08691589  0.46467757    -0.59990
O186        O  0.78210540  0.05326194  0.49842939    -0.50900
C187        C  0.79047161  0.01248738  0.42079893     0.71120
O188        O  0.80528358  0.03653692  0.41531449    -0.45760
C189        C  0.84459318  0.01048598  0.50873217     0.75820
O190        O  0.86633894  0.05193865  0.44538721    -0.57620
O191        O  0.82126024  0.02704086  0.51230902    -0.47710
O192        O  0.84543818  0.08655052  0.47216995    -0.54050
C193        C  0.77641572  0.07983832  0.48885624     0.86000
O194        O  0.79087996  0.00417091  0.44820649    -0.55940
O195        O  0.85381166  0.00842490  0.48147170    -0.59240
In196      In  0.94455426  0.66222935  0.96694614     1.36870
C197        C  0.93719205  0.60998872  0.93576591     0.78450
O198        O  0.93429565  0.69391971  0.92757723    -0.59990
O199        O  0.97799058  0.69572757  0.94821582    -0.50900
C200        C  0.90063436  0.68886190  0.00026707     0.71120
O201        O  0.89741767  0.68267955  0.97239392    -0.45760
C202        C  0.99287509  0.64677944  0.00058344     0.75820
O203        O  0.92406195  0.61492979  0.96099469    -0.57620
O204        O  0.99036732  0.67229347  0.98741384    -0.47710
O205        O  0.95229309  0.63232040  0.92591066    -0.54050
C206        C  0.96044525  0.70611465  0.92788021     0.86000
O207        O  0.92552729  0.67995320  0.01154421    -0.55940
O208        O  0.96969525  0.62978829  0.99803341    -0.59240
In209      In  0.14307706  0.54012503  0.04296920     1.36870
C210        C  0.10070687  0.58415769  0.04134892     0.78450
O211        O  0.17622400  0.57799301  0.05176004    -0.59990
O212        O  0.17821529  0.55486041  0.00902049    -0.50900
C213        C  0.16982772  0.50682648  0.08609051     0.71120
O214        O  0.14957020  0.52668669  0.09225240    -0.45760
C215        C  0.11131072  0.50185291  0.00848169     0.75820
O216        O  0.10611952  0.56935222  0.06563910    -0.57620
O217        O  0.13843840  0.50940211  0.00223950    -0.47710
O218        O  0.11744289  0.57650975  0.01912471    -0.54050
C219        C  0.18809287  0.57643830  0.02548493     0.86000
O220        O  0.17534468  0.50369093  0.05801565    -0.55940
O221        O  0.10161372  0.51111206  0.03408751    -0.59240
In222      In  0.01855870  0.46710761  0.84684218     1.36870
C223        C  0.05057564  0.46725476  0.89809500     0.78450
O224        O  0.06299680  0.46554739  0.82024200    -0.59990
O225        O  0.03062206  0.50062964  0.81088625    -0.50900
C226        C  0.99124668  0.42206911  0.81667280     0.71120
O227        O  0.01369250  0.41716367  0.83415417    -0.45760
C228        C  0.97627164  0.50380622  0.87156058     0.75820
O229        O  0.03345061  0.44498837  0.89133065    -0.57620
O230        O  0.99299010  0.51131800  0.84935867    -0.47710
O231        O  0.05345646  0.48698281  0.87746205    -0.54050
C232        C  0.05698223  0.48989104  0.80589521     0.86000
O233        O  0.98288086  0.44958801  0.81531268    -0.55940
O234        O  0.97975955  0.47642080  0.87993768    -0.59240
In235      In  0.89059893  0.29109059  0.71539744     1.36870
C236        C  0.83942389  0.30472441  0.68515306     0.78450
O237        O  0.92619162  0.29715100  0.67838355    -0.59990
O238        O  0.90870827  0.25265703  0.68721717    -0.50900
C239        C  0.92262762  0.33158008  0.74779195     0.71120
O240        O  0.90375920  0.33920632  0.72741346    -0.45760
C241        C  0.86662330  0.24758065  0.74976979     0.75820
O242        O  0.84372535  0.31296587  0.71245505    -0.57620
O243        O  0.89336063  0.24536290  0.73907610    -0.47710
O244        O  0.86267695  0.29315392  0.67259293    -0.54050
C245        C  0.92597621  0.26913175  0.67116217     0.86000
O246        O  0.92462226  0.30312952  0.75182970    -0.55940
O247        O  0.85392761  0.27316321  0.74595881    -0.59240
In248      In  0.76687360  0.08883833  0.78907006     1.36870
C249        C  0.80000252  0.13929607  0.78438189     0.78450
O250        O  0.81066884  0.06344189  0.79955129    -0.59990
O251        O  0.78518569  0.05069500  0.76043314    -0.50900
C252        C  0.73551185  0.06382907  0.83473595     0.71120
O253        O  0.75513431  0.08453938  0.83913457    -0.45760
C254        C  0.72478730  0.10872548  0.74945840     0.75820
O255        O  0.78569870  0.13322022  0.80877054    -0.57620
O256        O  0.74136523  0.08543446  0.74507727    -0.47710
O257        O  0.79858174  0.11893328  0.76405691    -0.54050
C258        C  0.80912241  0.04678228  0.77598072     0.86000
O259        O  0.73211269  0.05635615  0.80716213    -0.55940
O260        O  0.72851029  0.12072874  0.77546877    -0.59240
In261      In  0.69720572  0.21642532  0.59992360     1.36870
C262        C  0.68810987  0.17821461  0.64685155     0.78450
O263        O  0.68940335  0.18018133  0.56369905    -0.59990
O264        O  0.73497340  0.19359286  0.57412207    -0.50900
C265        C  0.65595398  0.24956132  0.56958387     0.71120
O266        O  0.64858324  0.22906477  0.58844729    -0.45760
C267        C  0.73465116  0.25759629  0.62527880     0.75820
O268        O  0.67047539  0.20065019  0.64199849    -0.57620
O269        O  0.74084193  0.24310013  0.60110516    -0.47710
O270        O  0.70928064  0.17550613  0.62759999    -0.54050
C271        C  0.71769947  0.17591723  0.55930354     0.86000
O272        O  0.68438497  0.25270882  0.56614474    -0.55940
O273        O  0.70860086  0.25156497  0.63606789    -0.59240
In274      In  0.44010578  0.53621723  0.34155566     1.36870
C275        C  0.41347329  0.54054255  0.39607880     0.78450
O276        O  0.39373277  0.54418498  0.32043135    -0.59990
O277        O  0.42128282  0.50748046  0.30391878    -0.50900
C278        C  0.47138936  0.57995807  0.31300628     0.71120
O279        O  0.44934079  0.58578679  0.33074868    -0.45760
C280        C  0.47436305  0.48901119  0.35924821     0.75820
O281        O  0.43845352  0.55375556  0.39029598    -0.57620
O282        O  0.45600448  0.48782114  0.33713603    -0.47710
O283        O  0.40124317  0.52749748  0.37356367    -0.54050
C284        C  0.39588015  0.52124274  0.30285961     0.86000
O285        O  0.47729255  0.55192464  0.31033912    -0.55940
O286        O  0.47721643  0.51539747  0.37058773    -0.59240
In287      In  0.32380650  0.46213823  0.54302509     1.36870
C288        C  0.37104526  0.42469649  0.55329325     0.78450
O289        O  0.28902405  0.42492187  0.55047472    -0.59990
O290        O  0.29175211  0.44565239  0.50692492    -0.50900
C291        C  0.29417558  0.49762223  0.58282026     0.71120
O292        O  0.30389523  0.47135863  0.58966191    -0.45760
C293        C  0.35258692  0.49730204  0.50297093     0.75820
O294        O  0.36540839  0.44740809  0.57039197    -0.57620
O295        O  0.32643487  0.48618319  0.49792238    -0.47710
O296        O  0.35167865  0.42065485  0.53240224    -0.54050
C297        C  0.27893242  0.42592748  0.52352268     0.86000
O298        O  0.30088371  0.50629594  0.55632060    -0.55940
O299        O  0.36325595  0.49173536  0.52916373    -0.59240
In300      In  0.51628317  0.34147794  0.47285131     1.36870
C301        C  0.51236458  0.38817885  0.43429334     0.78450
O302        O  0.51898825  0.31651349  0.42749456    -0.59990
O303        O  0.48774894  0.30113895  0.46090628    -0.50900
C304        C  0.56326167  0.31738255  0.50317163     0.71120
O305        O  0.56628211  0.34095670  0.48686233    -0.45760
C306        C  0.47739713  0.36158864  0.51559998     0.75820
O307        O  0.53810741  0.37733030  0.44202653    -0.57620
O308        O  0.47208289  0.34004403  0.49725179    -0.47710
O309        O  0.48988375  0.37643871  0.44778740    -0.54050
C310        C  0.49719406  0.29881525  0.43385559     0.86000
O311        O  0.53668131  0.30655090  0.50362572    -0.55940
O312        O  0.50399786  0.37264539  0.51286585    -0.59240
C313        C  0.39916621  0.40537929  0.55518886    -0.04460
C314        C  0.39776436  0.37422989  0.54671488    -0.01580
C315        C  0.42461227  0.35829739  0.53844288     0.03410
C316        C  0.45281061  0.37407982  0.53614131    -0.04460
C317        C  0.45497031  0.40356066  0.54958258    -0.01570
C318        C  0.42818501  0.41884477  0.55987924     0.03400
C319        C  0.36853941  0.35866403  0.54528508     0.38050
C320        C  0.48421100  0.41902222  0.55143226     0.38040
C321        C  0.43040769  0.44943817  0.57264824     0.36470
C322        C  0.42279798  0.32579718  0.53161982     0.36470
N323        N  0.43222548  0.47386072  0.58279673    -0.38350
N324        N  0.42130316  0.29986675  0.52635353    -0.38350
N325        N  0.50749157  0.43148198  0.55297599    -0.37800
N326        N  0.34547122  0.34585880  0.54374654    -0.37800
C327        C  0.48875741  0.46119664  0.37288224    -0.04460
C328        C  0.51601335  0.46330967  0.39032112    -0.01580
C329        C  0.52523220  0.43875046  0.40926061     0.03410
C330        C  0.50753863  0.41182529  0.41042297    -0.04460
C331        C  0.48269017  0.40832119  0.39007076    -0.01570
C332        C  0.47302502  0.43290951  0.37177146     0.03400
C333        C  0.53428484  0.49094256  0.38932665     0.38050
C334        C  0.46661875  0.37929295  0.38815070     0.38040
C335        C  0.44546791  0.42932949  0.35357600     0.36470
C336        C  0.55191369  0.44189486  0.42865041     0.36470
N337        N  0.42342184  0.42644167  0.33922899    -0.38350
N338        N  0.57326080  0.44444682  0.44406484    -0.38350
N339        N  0.45383363  0.35619064  0.38660669    -0.37800
N340        N  0.54887405  0.51297938  0.38850053    -0.37800
C341        C  0.40099800  0.53678561  0.42725149    -0.04460
C342        C  0.41631800  0.51694966  0.44749022    -0.01580
C343        C  0.40070177  0.50464195  0.47273713     0.03410
C344        C  0.37025148  0.51366956  0.47912945    -0.04460
C345        C  0.35616213  0.53624409  0.46080165    -0.01570
C346        C  0.37133828  0.54737839  0.43457354     0.03400
C347        C  0.44760811  0.50745495  0.44138700     0.38050
C348        C  0.32604166  0.54782113  0.46882548     0.38040
C349        C  0.35652301  0.56963517  0.41501613     0.36470
C350        C  0.41503926  0.48011577  0.48979694     0.36470
N351        N  0.34481453  0.58757274  0.39949607    -0.38350
N352        N  0.42683348  0.46014604  0.50247901    -0.38350
N353        N  0.30209350  0.55718074  0.47541721    -0.37800
N354        N  0.47266389  0.49978710  0.43733183    -0.37800
C355        C  0.63309673  0.26857558  0.55289351    -0.04460
C356        C  0.63812318  0.27688994  0.52200785    -0.01580
C357        C  0.61587439  0.29403486  0.50600120     0.03410
C358        C  0.58848082  0.30298117  0.52068528    -0.04460
C359        C  0.58397009  0.29577754  0.55179419    -0.01570
C360        C  0.60613120  0.27868952  0.56783998     0.03400
C361        C  0.66554179  0.26674751  0.50611172     0.38050
C362        C  0.55667646  0.30658516  0.56753767     0.38040
C363        C  0.60143091  0.27235280  0.60003672     0.36470
C364        C  0.62049383  0.30108151  0.47394872     0.36470
N365        N  0.59767681  0.26738276  0.62572499    -0.38350
N366        N  0.62413634  0.30664256  0.44836823    -0.38350
N367        N  0.53493514  0.31534093  0.58000127    -0.37800
N368        N  0.68741480  0.25875043  0.49338116    -0.37800
C369        C  0.70522053  0.12248627  0.72479335    -0.04460
C370        C  0.70438086  0.10891753  0.69527350    -0.01580
C371        C  0.69494996  0.12628914  0.66985299     0.03410
C372        C  0.68624105  0.15721445  0.67354447    -0.04460
C373        C  0.68115502  0.16861811  0.70332013    -0.01570
C374        C  0.69071191  0.15139052  0.72895565     0.03400
C375        C  0.71408904  0.07745001  0.69046500     0.38050
C376        C  0.66721437  0.19848066  0.70763570     0.38040
C377        C  0.68654896  0.16419317  0.75930334     0.36470
C378        C  0.69424413  0.11233079  0.63970553     0.36470
N379        N  0.68311811  0.17450128  0.78347617    -0.38350
N380        N  0.69342769  0.10105615  0.61574874    -0.38350
N381        N  0.65561539  0.22208923  0.71116734    -0.37800
N382        N  0.72185610  0.05238680  0.68650240    -0.37800
C383        C  0.81557760  0.16868085  0.77815669    -0.04460
C384        C  0.83861604  0.18036420  0.79758824    -0.01580
C385        C  0.85545184  0.20656165  0.78878766     0.03410
C386        C  0.84917513  0.22091679  0.76066523    -0.04460
C387        C  0.82603604  0.20930301  0.74148791    -0.01570
C388        C  0.80888807  0.18381202  0.75046837     0.03400
C389        C  0.84587073  0.16476081  0.82583100     0.38050
C390        C  0.82122416  0.22216351  0.71129082     0.38040
C391        C  0.78423094  0.17324530  0.73088714     0.36470
C392        C  0.87943671  0.21847002  0.80826845     0.36470
N393        N  0.76472978  0.16515757  0.71497128    -0.38350
N394        N  0.89864163  0.22799363  0.82376261    -0.38350
N395        N  0.81758502  0.23163299  0.68691393    -0.37800
N396        N  0.85172871  0.15228944  0.84837108    -0.37800
C397        C  0.80882846  0.30394511  0.67012566    -0.04460
C398        C  0.80690314  0.30413583  0.63791794    -0.01580
C399        C  0.78109527  0.29169971  0.62310105     0.03410
C400        C  0.75717847  0.27842394  0.64039437    -0.04460
C401        C  0.75709942  0.28256013  0.67253432    -0.01570
C402        C  0.78264651  0.29569490  0.68729556     0.03400
C403        C  0.83198617  0.31625284  0.61992947     0.38050
C404        C  0.73206961  0.27116754  0.69102753     0.38040
C405        C  0.78291871  0.29767209  0.72042250     0.36470
C406        C  0.77956359  0.29212958  0.58998133     0.36470
N407        N  0.78298363  0.29910017  0.74683594    -0.38350
N408        N  0.77830365  0.29252553  0.56357198    -0.38350
N409        N  0.71234646  0.26218077  0.70616452    -0.37800
N410        N  0.85198466  0.32589199  0.60555639    -0.37800
C411        C  0.97564449  0.39786891  0.79872789    -0.04460
C412        C  0.96719886  0.36997832  0.81246573    -0.01580
C413        C  0.94987520  0.34831228  0.79593047     0.03410
C414        C  0.94119743  0.35419765  0.76529033    -0.04460
C415        C  0.95059125  0.38180939  0.75132591    -0.01570
C416        C  0.96763870  0.40349247  0.76797899     0.03400
C417        C  0.97513369  0.36407263  0.84409619     0.38050
C418        C  0.94353042  0.38783179  0.71949301     0.38040
C419        C  0.97771071  0.43135462  0.75305551     0.36470
C420        C  0.93989399  0.32062015  0.81113459     0.36470
N421        N  0.98578860  0.45355151  0.74121532    -0.38350
N422        N  0.93191107  0.29859232  0.82334441    -0.38350
N423        N  0.93795023  0.39274570  0.69413280    -0.37800
N424        N  0.98146007  0.35934376  0.86931461    -0.37800
C425        C  0.09108405  0.48823176  0.98509009    -0.04460
C426        C  0.06793956  0.50697608  0.97274571    -0.01580
C427        C  0.05585705  0.50043619  0.94383308     0.03410
C428        C  0.06334541  0.47268188  0.92890984    -0.04460
C429        C  0.08335469  0.45171937  0.94319997    -0.01570
C430        C  0.09823551  0.46010574  0.97071811     0.03400
C431        C  0.05695593  0.53375934  0.98907215     0.38050
C432        C  0.09010652  0.42260906  0.92870074     0.38040
C433        C  0.12069219  0.43988515  0.98432319     0.36470
C434        C  0.03728957  0.52353917  0.92876448     0.36470
N435        N  0.13849259  0.42356326  0.99518635    -0.38350
N436        N  0.02349741  0.54266425  0.91674224    -0.38350
N437        N  0.09544813  0.39929046  0.91721038    -0.37800
N438        N  0.04680422  0.55484246  0.00153544    -0.37800
C439        C  0.02162853  0.63660224  0.01579642    -0.04460
C440        C  0.05019338  0.64231134  0.00173702    -0.01580
C441        C  0.07696872  0.62806004  0.01277765     0.03410
C442        C  0.07540353  0.60702833  0.03734029    -0.04460
C443        C  0.04752295  0.60438769  0.05370512    -0.01570
C444        C  0.02070624  0.61898220  0.04279951     0.03400
C445        C  0.05191397  0.66076678  0.97423537     0.38050
C446        C  0.04570119  0.58518420  0.08057492     0.38040
C447        C  0.99199551  0.61542588  0.05909404     0.36470
C448        C  0.10602653  0.63442415  0.99794293     0.36470
N449        N  0.96907286  0.61268591  0.07208109    -0.38350
N450        N  0.12906108  0.63952321  0.98592162    -0.38350
N451        N  0.04412677  0.56996314  0.10210039    -0.37800
N452        N  0.05329622  0.67530406  0.95222261    -0.37800
C453        C  0.95656086  0.52662355  0.88782025    -0.04460
C454        C  0.94497915  0.55213438  0.87170053    -0.01580
C455        C  0.93556775  0.57865546  0.88764601     0.03410
C456        C  0.93749004  0.57986044  0.91981595    -0.04460
C457        C  0.94478557  0.55289197  0.93607032    -0.01570
C458        C  0.95397107  0.52617719  0.92011056     0.03400
C459        C  0.94345166  0.55142100  0.83857745     0.38050
C460        C  0.94589136  0.55339712  0.96921432     0.38040
C461        C  0.96369234  0.49950271  0.93727583     0.36470
C462        C  0.92452184  0.60499624  0.87083345     0.36470
N463        N  0.97160442  0.47836385  0.95107787    -0.38350
N464        N  0.91557615  0.62584366  0.85724238    -0.38350
N465        N  0.94692001  0.55380939  0.99563712    -0.37800
N466        N  0.94224421  0.55077635  0.81216756    -0.37800
C467        C  0.73018974  0.15022601  0.54087988    -0.04460
C468        C  0.74854534  0.12807641  0.55550041    -0.01580
C469        C  0.76037999  0.10310168  0.53888065     0.03410
C470        C  0.75738068  0.10200102  0.50666933    -0.04460
C471        C  0.73862250  0.12395585  0.49202151    -0.01570
C472        C  0.72413416  0.14736788  0.50932614     0.03400
C473        C  0.75577511  0.13101622  0.58778295     0.38050
C474        C  0.73348022  0.12192290  0.45936544     0.38040
C475        C  0.70383659  0.16901782  0.49454051     0.36470
C476        C  0.77536743  0.07857350  0.55545353     0.36470
N477        N  0.68744459  0.18612299  0.48271625    -0.38350
N478        N  0.78628962  0.05880478  0.56922301    -0.38350
N479        N  0.72932667  0.12022139  0.43330494    -0.37800
N480        N  0.76213220  0.13326527  0.61335392    -0.37800
C481        C  0.94306606  0.25626899  0.64488133    -0.04460
C482        C  0.97524945  0.25782629  0.64350658    -0.01580
C483        C  0.99134949  0.24189302  0.62030691     0.03410
C484        C  0.97521813  0.22450026  0.59818497    -0.04460
C485        C  0.94274134  0.22471692  0.59866565    -0.01570
C486        C  0.92685547  0.24051697  0.62190417     0.03400
C487        C  0.99182445  0.27474649  0.66672893     0.38050
C488        C  0.92526598  0.20740897  0.57635935     0.38040
C489        C  0.89357568  0.24055782  0.62215225     0.36470
C490        C  0.02450001  0.24352366  0.61934687     0.36470
N491        N  0.86707900  0.24059008  0.62224764    -0.38350
N492        N  0.05095089  0.24485199  0.61866866    -0.38350
N493        N  0.91115446  0.19360683  0.55873604    -0.37800
N494        N  0.00497365  0.28827329  0.68528607    -0.37800
C495        C  0.89866593  0.09460625  0.46086729    -0.04460
C496        C  0.92668259  0.07857465  0.46461771    -0.01580
C497        C  0.95285239  0.09399919  0.47563762     0.03410
C498        C  0.95124576  0.12554287  0.48280914    -0.04460
C499        C  0.92441903  0.14214182  0.47561357    -0.01570
C500        C  0.89827652  0.12678563  0.46467310     0.03400
C501        C  0.92819919  0.04574777  0.45963746     0.38050
C502        C  0.92354218  0.17509476  0.47994306     0.38040
C503        C  0.87073643  0.14417610  0.45796708     0.36470
C504        C  0.98055971  0.07673026  0.48202332     0.36470
N505        N  0.84879784  0.15810031  0.45266601    -0.38350
N506        N  0.00260458  0.06291023  0.48717054    -0.38350
N507        N  0.92294038  0.20136493  0.48339638    -0.37800
N508        N  0.92951242  0.01956326  0.45571550    -0.37800
C509        C  0.88040497  0.99413380  0.73262428    -0.04460
C510        C  0.88819892  0.01826248  0.75280171    -0.01580
C511        C  0.86514367  0.03422973  0.76903214     0.03410
C512        C  0.83407852  0.02581111  0.76563750    -0.04460
C513        C  0.82683944  0.99924790  0.74861210    -0.01570
C514        C  0.84978305  0.98363923  0.73192547     0.03400
C515        C  0.91998610  0.02707762  0.75658563     0.38050
C516        C  0.79554991  0.98817803  0.74780180     0.38040
C517        C  0.84117732  0.95807096  0.71254493     0.36470
C518        C  0.87345671  0.06055896  0.78751704     0.36470
N519        N  0.83415987  0.93772796  0.69709424    -0.38350
N520        N  0.88018689  0.08156512  0.80219475    -0.38350
N521        N  0.77060684  0.97936364  0.74722160    -0.37800
N522        N  0.94533732  0.03405393  0.75960865    -0.37800
C523        C  0.98769593  0.03822056  0.62830984    -0.04460
C524        C  0.97088757  0.06591663  0.62669271    -0.01580
C525        C  0.98223344  0.09071108  0.60981835     0.03410
C526        C  0.01093581  0.08860758  0.59502691    -0.04460
C527        C  0.02831095  0.06145844  0.59731848    -0.01570
C528        C  0.01670815  0.03624934  0.61390223     0.03400
C529        C  0.94109538  0.06885383  0.64118670     0.38050
C530        C  0.05823016  0.05968890  0.58306105     0.38040
C531        C  0.03495017  0.00861568  0.61675855     0.36470
C532        C  0.96316218  0.11778870  0.60596601     0.36470
N533        N  0.04952081  0.98657886  0.61918263    -0.38350
N534        N  0.94786697  0.13920669  0.60270028    -0.38350
N535        N  0.08220864  0.05830952  0.57184251    -0.37800
N536        N  0.91747419  0.07174971  0.65285447    -0.37800
C537        C  0.88660301  0.97208161  0.58915088    -0.04460
C538        C  0.88722138  0.95513516  0.56154830    -0.01580
C539        C  0.87321380  0.96713267  0.53491834     0.03410
C540        C  0.86051888  0.99694635  0.53540130    -0.04460
C541        C  0.86219456  0.01454043  0.56242922    -0.01570
C542        C  0.87249827  0.00128689  0.58962576     0.03400
C543        C  0.90123432  0.92503070  0.56084686     0.38050
C544        C  0.85654454  0.04734457  0.56166161     0.38040
C545        C  0.86873987  0.01831467  0.61796178     0.36470
C546        C  0.87195335  0.94892029  0.50721265     0.36470
N547        N  0.86483989  0.03152764  0.64060715    -0.38350
N548        N  0.87093573  0.93440581  0.48506367    -0.38350
N549        N  0.85295371  0.07359061  0.56086455    -0.37800
N550        N  0.91236695  0.90095508  0.56028156    -0.37800
C551        C  0.52163720  0.64811749  0.26223051    -0.04460
C552        C  0.53650099  0.62124860  0.27219939    -0.01580
C553        C  0.52028519  0.59931277  0.28933093     0.03410
C554        C  0.48881830  0.60379978  0.29615670    -0.04460
C555        C  0.47392685  0.63063281  0.28578944    -0.01570
C556        C  0.49025254  0.65261340  0.26890132     0.03400
C557        C  0.56881398  0.61661465  0.26583069     0.38050
C558        C  0.44152281  0.63544259  0.29157041     0.38040
C559        C  0.47433040  0.67944454  0.25738328     0.36470
C560        C  0.53653861  0.57276218  0.30096928     0.36470
N561        N  0.46171069  0.70081066  0.24810983    -0.38350
N562        N  0.54953194  0.55165124  0.31031617    -0.38350
N563        N  0.41570217  0.63941253  0.29614324    -0.37800
N564        N  0.59456944  0.61286839  0.26074023    -0.37800
C565        C  0.87781040  0.70669339  0.01796137    -0.04460
C566        C  0.87009526  0.73664442  0.00862939    -0.01580
C567        C  0.84965250  0.75451289  0.02622400     0.03410
C568        C  0.83636004  0.74232002  0.05299564    -0.04460
C569        C  0.84378555  0.71217580  0.06207049    -0.01570
C570        C  0.86472319  0.69453915  0.04475705     0.03400
C571        C  0.88378871  0.74938054  0.98124445     0.38050
C572        C  0.83041075  0.69951047  0.08960277     0.38040
C573        C  0.87225163  0.66358974  0.05407446     0.36470
C574        C  0.84157906  0.78512199  0.01615899     0.36470
N575        N  0.87824654  0.63886802  0.06141699    -0.38350
N576        N  0.83512714  0.80952174  0.00814828    -0.38350
N577        N  0.81969666  0.68944680  0.11156257    -0.37800
N578        N  0.89473353  0.75945960  0.95940211    -0.37800
C579        C  0.70205276  0.74883595  0.14148117    -0.04460
C580        C  0.69204274  0.71832866  0.13863604    -0.01580
C581        C  0.66452533  0.70905671  0.15297187     0.03410
C582        C  0.64651082  0.73068458  0.16915809    -0.04460
C583        C  0.65705272  0.76121477  0.17216051    -0.01570
C584        C  0.68490233  0.77000663  0.15887115     0.03400
C585        C  0.71023575  0.69659374  0.12122188     0.38050
C586        C  0.63953473  0.78392478  0.18921442     0.38040
C587        C  0.69547918  0.80135845  0.16239144     0.36470
C588        C  0.65430622  0.67767805  0.15010941     0.36470
N589        N  0.70383224  0.82630115  0.16530982    -0.38350
N590        N  0.64622960  0.65258246  0.14781781    -0.38350
N591        N  0.62569576  0.80224353  0.20257582    -0.37800
N592        N  0.72489818  0.67932938  0.10734440    -0.37800
C593        C  0.73993917  0.95947888  0.35510302    -0.04460
C594        C  0.72431629  0.97775441  0.37685255    -0.01580
C595        C  0.74098552  0.99561566  0.39791942     0.03410
C596        C  0.77328313  0.99535279  0.39732831    -0.04460
C597        C  0.78894339  0.97727222  0.37560299    -0.01570
C598        C  0.77234890  0.95927937  0.35459996     0.03400
C599        C  0.69112794  0.97915867  0.37684483     0.38050
C600        C  0.82215330  0.97658001  0.37542485     0.38040
C601        C  0.78869283  0.93966671  0.33320792     0.36470
C602        C  0.72495448  0.01495430  0.41978970     0.36470
N603        N  0.80162908  0.92390995  0.31618882    -0.38350
N604        N  0.71233220  0.03053523  0.43719759    -0.38350
N605        N  0.84864368  0.97601711  0.37533362    -0.37800
N606        N  0.66465443  0.98034674  0.37678428    -0.37800
C607        C  0.75689368  0.88247255  0.22422974    -0.04460
C608        C  0.75951506  0.89814462  0.19613044    -0.01580
C609        C  0.77179488  0.88307861  0.17031356     0.03410
C610        C  0.78086398  0.85204685  0.17223093    -0.04460
C611        C  0.78379070  0.83864478  0.20151543    -0.01570
C612        C  0.77281194  0.85439962  0.22764081     0.03400
C613        C  0.74961153  0.92978324  0.19365098     0.38050
C614        C  0.79584650  0.80786278  0.20482703     0.38040
C615        C  0.77743483  0.84127848  0.25768295     0.36470
C616        C  0.77429117  0.89931252  0.14155330     0.36470
N617        N  0.78135977  0.83081288  0.28162647    -0.38350
N618        N  0.77637732  0.91229885  0.11864985    -0.38350
N619        N  0.80532706  0.78326066  0.20762501    -0.37800
N620        N  0.74182688  0.95505503  0.19175506    -0.37800
C621        C  0.64672311  0.82855505  0.29197199    -0.04460
C622        C  0.66146503  0.80358543  0.27759384    -0.01580
C623        C  0.64506099  0.77670075  0.27076724     0.03410
C624        C  0.61312736  0.77557065  0.27616889    -0.04460
C625        C  0.59902116  0.79943996  0.29297788    -0.01570
C626        C  0.61595710  0.82565255  0.30129150     0.03400
C627        C  0.69265603  0.80654386  0.26680518     0.38050
C628        C  0.56699661  0.79713385  0.30141175     0.38040
C629        C  0.60168688  0.84973612  0.31920074     0.36470
C630        C  0.66076278  0.75144026  0.25570150     0.36470
N631        N  0.59027401  0.86858445  0.33400462    -0.38350
N632        N  0.67345764  0.73138889  0.24376136    -0.38350
N633        N  0.54145169  0.79517052  0.30815424    -0.37800
N634        N  0.71730245  0.80840505  0.25738819    -0.37800
C635        C  0.22122681  0.45554342  0.15329812    -0.04460
C636        C  0.21291191  0.48638961  0.15903797    -0.01580
C637        C  0.19563387  0.50295804  0.13742363     0.03410
C638        C  0.18664485  0.48894946  0.10968497    -0.04460
C639        C  0.19543156  0.45823504  0.10377915    -0.01570
C640        C  0.21267189  0.44167231  0.12542122     0.03400
C641        C  0.22324835  0.50165241  0.18668277     0.38050
C642        C  0.18601935  0.44311846  0.07577618     0.38040
C643        C  0.22068919  0.40996382  0.11927246     0.36470
C644        C  0.18833517  0.53487972  0.14334499     0.36470
N645        N  0.22708783  0.38469742  0.11431202    -0.38350
N646        N  0.18261087  0.56033892  0.14813010    -0.38350
N647        N  0.17862144  0.43095322  0.05347048    -0.37800
N648        N  0.23160418  0.51379184  0.20867490    -0.37800
C649        C  0.32526963  0.47291844  0.25464073    -0.04460
C650        C  0.35359659  0.47898431  0.24005039    -0.01580
C651        C  0.37579140  0.49725177  0.25475187     0.03410
C652        C  0.37010911  0.50936360  0.28417813    -0.04460
C653        C  0.34076151  0.50601273  0.29732476    -0.01570
C654        C  0.31840492  0.48804943  0.28255093     0.03400
C655        C  0.36085333  0.46531640  0.21064658     0.38050
C656        C  0.33398945  0.51935669  0.32701722     0.38040
C657        C  0.28834237  0.48511118  0.29639482     0.36470
C658        C  0.40468134  0.50353510  0.23962774     0.36470
N659        N  0.26440564  0.48283814  0.30750891    -0.38350
N660        N  0.42767043  0.50874392  0.22757405    -0.38350
N661        N  0.32844475  0.52990951  0.35069120    -0.37800
N662        N  0.36678931  0.45451923  0.18717308    -0.37800
C663        C  0.08636819  0.21128265  0.49616068    -0.04460
C664        C  0.08686713  0.24337033  0.50034444    -0.01580
C665        C  0.10705254  0.26155041  0.48311576     0.03410
C666        C  0.12694120  0.24777101  0.46159229    -0.04460
C667        C  0.12716330  0.21556123  0.45813881    -0.01570
C668        C  0.10698600  0.19735608  0.47547321     0.03400
C669        C  0.06709551  0.25764644  0.52303931     0.38050
C670        C  0.14707742  0.20121181  0.43566064     0.38040
C671        C  0.10646754  0.16445427  0.47095512     0.36470
C672        C  0.10799588  0.29437082  0.48828725     0.36470
N673        N  0.10602834  0.13820710  0.46734648    -0.38350
N674        N  0.10883422  0.32052593  0.49246054    -0.38350
N675        N  0.16286360  0.18980126  0.41762737    -0.37800
N676        N  0.05138957  0.26892888  0.54122497    -0.37800
C677        C  0.25482570  0.40508233  0.51149428    -0.04460
C678        C  0.23478981  0.41540537  0.48838679    -0.01580
C679        C  0.21624462  0.39443060  0.47242402     0.03410
C680        C  0.21822754  0.36275965  0.47873091    -0.04460
C681        C  0.23539341  0.35302159  0.50428832    -0.01570
C682        C  0.25311272  0.37421757  0.52104322     0.03400
C683        C  0.23304490  0.44776493  0.48104003     0.38050
C684        C  0.23472860  0.32115573  0.51348220     0.38040
C685        C  0.26983295  0.36392044  0.54769776     0.36470
C686        C  0.19602397  0.40573622  0.44885417     0.36470
N687        N  0.28261492  0.35565828  0.56930555    -0.38350
N688        N  0.17973317  0.41544291  0.43048419    -0.38350
N689        N  0.23413053  0.29574382  0.52081363    -0.37800
N690        N  0.23163759  0.47354359  0.47519438    -0.37800
C691        C  0.17214033  0.34737000  0.33122552    -0.04460
C692        C  0.17453165  0.37954685  0.33014228    -0.01580
C693        C  0.18838917  0.39369555  0.30481796     0.03410
C694        C  0.19721560  0.37588456  0.27928395    -0.04460
C695        C  0.18585903  0.34569135  0.27702114    -0.01570
C696        C  0.17511602  0.33075337  0.30354152     0.03400
C697        C  0.16161169  0.39810128  0.35442011     0.38050
C698        C  0.18462159  0.33025536  0.24770112     0.38040
C699        C  0.16894031  0.29821186  0.30245952     0.36470
C700        C  0.19302231  0.42655049  0.30490299     0.36470
N701        N  0.16414007  0.27219701  0.30148302    -0.38350
N702        N  0.19659271  0.45277976  0.30490076    -0.38350
N703        N  0.18304156  0.31808804  0.22421638    -0.37800
N704        N  0.15026422  0.41332779  0.37293396    -0.37800
C705        C  0.48187869  0.27883995  0.41095051    -0.04460
C706        C  0.49849588  0.26515921  0.38665139    -0.01580
C707        C  0.48290270  0.24909478  0.36333897     0.03410
C708        C  0.45081626  0.24604628  0.36455997    -0.04460
C709        C  0.43437973  0.25827586  0.38955915    -0.01570
C710        C  0.44965081  0.27522669  0.41221933     0.03400
C711        C  0.53158304  0.26748751  0.38555948     0.38050
C712        C  0.40131802  0.25497953  0.39121368     0.38040
C713        C  0.43152268  0.29111266  0.43524521     0.36470
C714        C  0.49985030  0.23531130  0.33828903     0.36470
N715        N  0.41691509  0.30402906  0.45326098    -0.38350
N716        N  0.51342685  0.22416073  0.31840914    -0.38350
N717        N  0.37500607  0.25246123  0.39291687    -0.37800
N718        N  0.55799597  0.26929267  0.38466769    -0.37800
C719        C  0.31730874  0.32660274  0.21678383    -0.04460
C720        C  0.30272282  0.30047622  0.22874191    -0.01580
C721        C  0.31981713  0.27409711  0.23598351     0.03410
C722        C  0.35210841  0.27444949  0.23337211    -0.04460
C723        C  0.36638110  0.29943354  0.21880924    -0.01570
C724        C  0.34898655  0.32541424  0.21041599     0.03400
C725        C  0.27093357  0.30193957  0.23793835     0.38050
C726        C  0.39904643  0.29852532  0.21291262     0.38040
C727        C  0.36381452  0.35128957  0.19609105     0.36470
C728        C  0.30418367  0.24806990  0.24940793     0.36470
N729        N  0.37566879  0.37188716  0.18456035    -0.38350
N730        N  0.29155560  0.22751323  0.26018794    -0.38350
N731        N  0.42510343  0.29759307  0.20815117    -0.37800
N732        N  0.24590894  0.30242564  0.24645857    -0.37800
C733        C  0.31337656  0.23772535  0.34002853    -0.04460
C734        C  0.29624038  0.21791635  0.35894326    -0.01580
C735        C  0.26945956  0.22879076  0.37381582     0.03410
C736        C  0.25957792  0.25926983  0.36941490    -0.04460
C737        C  0.27545605  0.27828770  0.34894606    -0.01570
C738        C  0.30251840  0.26794689  0.33491934     0.03400
C739        C  0.30702270  0.18704628  0.36461459     0.38050
C740        C  0.26351461  0.30854309  0.34172802     0.38040
C741        C  0.31920745  0.28903765  0.31551459     0.36470
C742        C  0.25289547  0.20913675  0.39466511     0.36470
N743        N  0.33253166  0.30628096  0.30058777    -0.38350
N744        N  0.23968666  0.19350088  0.41136611    -0.38350
N745        N  0.25390363  0.33252460  0.33583285    -0.37800
N746        N  0.31559271  0.16240425  0.36926376    -0.37800
C747        C  0.50671831  0.75429681  0.15641920    -0.04460
C748        C  0.51297217  0.78546383  0.15079825    -0.01580
C749        C  0.49777385  0.80101174  0.12721875     0.03410
C750        C  0.47644357  0.78559481  0.10854260    -0.04460
C751        C  0.46931170  0.75474155  0.11467236    -0.01570
C752        C  0.48464467  0.73898710  0.13844918     0.03400
C753        C  0.53630111  0.80145775  0.16829396     0.38050
C754        C  0.44659490  0.73919661  0.09625525     0.38040
C755        C  0.47743542  0.70728051  0.14470364     0.36470
C756        C  0.50399736  0.83327050  0.12294788     0.36470
N757        N  0.47166652  0.68197478  0.14977803    -0.38350
N758        N  0.50969202  0.85900389  0.12097861    -0.38350
N759        N  0.42836402  0.72688104  0.08157089    -0.37800
N760        N  0.55487369  0.81422341  0.18214459    -0.37800
C761        C  0.44098797  0.14987052  0.24892094    -0.04460
C762        C  0.42838103  0.12066970  0.24301442    -0.01580
C763        C  0.44456530  0.09913778  0.22491540     0.03410
C764        C  0.47375625  0.10638382  0.21269545    -0.04460
C765        C  0.48662486  0.13535153  0.21925948    -0.01570
C766        C  0.47044881  0.15682602  0.23722604     0.03400
C767        C  0.39830128  0.11285025  0.25467654     0.38050
C768        C  0.51702830  0.14315311  0.20833709     0.38040
C769        C  0.48488148  0.18595608  0.24414634     0.36470
C770        C  0.43042668  0.06984996  0.21820736     0.36470
N771        N  0.49641803  0.20916824  0.24942981    -0.38350
N772        N  0.41909804  0.04652859  0.21293285    -0.38350
N773        N  0.54121815  0.14956231  0.19967781    -0.37800
N774        N  0.37435043  0.10643647  0.26397060    -0.37800
C775        C  0.58416019  0.01233347  0.23058126    -0.04460
C776        C  0.57486827  0.98919044  0.25113297    -0.01580
C777        C  0.59689291  0.97152057  0.26681006     0.03410
C778        C  0.62844554  0.97676342  0.26203897    -0.04460
C779        C  0.63752406  0.00254864  0.24489871    -0.01570
C780        C  0.61544620  0.02065569  0.22974929     0.03400
C781        C  0.54255046  0.98352699  0.25636594     0.38050
C782        C  0.66969663  0.01049707  0.24279890     0.38040
C783        C  0.62525976  0.04761960  0.21329966     0.36470
C784        C  0.58678924  0.94698169  0.28653501     0.36470
N785        N  0.63325909  0.06949078  0.20084389    -0.38350
N786        N  0.57830440  0.92761633  0.30233011    -0.38350
N787        N  0.69535743  0.01678707  0.24115406    -0.37800
N788        N  0.51679032  0.97909202  0.26061610    -0.37800
C789        C  0.47810747  0.97403098  0.11826416    -0.04460
C790        C  0.44614258  0.96928513  0.11669851    -0.01580
C791        C  0.43447022  0.94308598  0.10150357     0.03410
C792        C  0.45484394  0.92174869  0.08807139    -0.04460
C793        C  0.48665340  0.92805732  0.08770773    -0.01570
C794        C  0.49811447  0.95404766  0.10254179     0.03640
C795        C  0.42546375  0.99067934  0.13156472     0.38050
C796        C  0.50800105  0.90805641  0.07161245     0.38040
C797        C  0.53072251  0.96058687  0.10094444     0.36470
C798        C  0.40181509  0.93754211  0.10072086     0.36470
N799        N  0.55664252  0.96582329  0.09960444    -0.38350
N800        N  0.37570584  0.93319729  0.10007476    -0.38350
N801        N  0.52525342  0.89217137  0.05912867    -0.37800
N802        N  0.40899834  0.00785645  0.14338086    -0.37800
C803        C  0.68550339  0.01540084  0.90509627    -0.04460
C804        C  0.71627131  0.02466935  0.91007919    -0.01580
C805        C  0.73237313  0.04103627  0.88743824     0.03410
C806        C  0.71794349  0.04884035  0.85969710    -0.04460
C807        C  0.68689009  0.04099216  0.85523215    -0.01570
C808        C  0.67080288  0.02431654  0.87765714     0.03400
C809        C  0.73198467  0.01722004  0.93829276     0.38050
C810        C  0.67101168  0.05100315  0.82787740     0.38040
C811        C  0.63872137  0.01742088  0.87263564     0.36470
C812        C  0.76431615  0.04870788  0.89236240     0.36470
N813        N  0.61312686  0.01206014  0.86852139    -0.38350
N814        N  0.78977611  0.05474113  0.89636394    -0.38350
N815        N  0.65839001  0.05911121  0.80611204    -0.37800
N816        N  0.74468020  0.01176370  0.96081893    -0.37800
C817        C  0.69643768  0.89495307  0.99915290    -0.04460
C818        C  0.68238736  0.86701161  0.00687485    -0.01580
C819        C  0.69895462  0.84441441  0.02287624     0.03410
C820        C  0.72965053  0.84981326  0.03193079    -0.04460
C821        C  0.74440665  0.87678252  0.02172265    -0.01570
C822        C  0.72779744  0.89915681  0.00538174     0.03400
C823        C  0.65019370  0.86223567  0.00028515     0.38050
C824        C  0.77626752  0.88250322  0.02903207     0.38040
C825        C  0.74305271  0.92660606  0.99490713     0.36470
C826        C  0.68402153  0.81572371  0.03019912     0.36470
N827        N  0.75547410  0.94831261  0.98642687    -0.38350
N828        N  0.67206679  0.79288439  0.03604471    -0.38350
N829        N  0.80168649  0.88719729  0.03474259    -0.37800
N830        N  0.62449322  0.85835821  0.99529256    -0.37800
C831        C  0.60753067  0.03272594  0.03160827    -0.04460
C832        C  0.57733673  0.04427482  0.02905891    -0.01580
C833        C  0.56132226  0.05371220  0.05564210     0.03410
C834        C  0.57635385  0.05381437  0.08432281    -0.04460
C835        C  0.60842397  0.04937724  0.08494629    -0.01570
C836        C  0.62391312  0.03859047  0.05877080     0.03400
C837        C  0.56210893  0.04497518  0.99963055     0.38050
C838        C  0.62557990  0.05518980  0.11264795     0.38040
C839        C  0.65670171  0.03317026  0.05995475     0.36470
C840        C  0.52890667  0.06068182  0.05358933     0.36470
N841        N  0.68285257  0.02890855  0.06083068    -0.38350
N842        N  0.50300360  0.06606276  0.05184167    -0.38350
N843        N  0.63976517  0.05990223  0.13443267    -0.37800
N844        N  0.54984941  0.04552339  0.97620977    -0.37800
C845        C  0.55627015  0.92016155  0.97247268    -0.04460
C846        C  0.53214781  0.93372305  0.98926809    -0.01580
C847        C  0.50430685  0.91823383  0.99307753     0.03410
C848        C  0.50225099  0.88696589  0.98504026    -0.04460
C849        C  0.52576914  0.87358226  0.96719302    -0.01570
C850        C  0.55219772  0.89069387  0.95974424     0.03400
C851        C  0.53660837  0.96235529  0.00537366     0.38050
C852        C  0.52277368  0.84223276  0.95671567     0.38040
C853        C  0.57607560  0.87713149  0.94101593     0.36470
C854        C  0.47871437  0.93418229  0.00731039     0.36470
N855        N  0.59507859  0.86629339  0.92597353    -0.38350
N856        N  0.45840085  0.94730393  0.01829640    -0.38350
N857        N  0.52024296  0.81720467  0.94837817    -0.37800
N858        N  0.53960158  0.98440813  0.01968108    -0.37800
C859        C  0.07971687  0.50642070  0.78680364    -0.04460
C860        C  0.08183035  0.53863148  0.78950597    -0.01580
C861        C  0.10400305  0.55477128  0.77281051     0.03410
C862        C  0.12510497  0.53896162  0.75395956    -0.04460
C863        C  0.12258511  0.50692250  0.75047335    -0.01570
C864        C  0.09996579  0.49065628  0.76691538     0.03400
C865        C  0.06225002  0.55534214  0.81072793     0.38050
C866        C  0.14379484  0.49059466  0.73072440     0.38040
C867        C  0.09734939  0.45780206  0.76307709     0.36470
C868        C  0.10434237  0.58796978  0.77448999     0.36470
N869        N  0.09523296  0.43158003  0.75997593    -0.38350
N870        N  0.10399444  0.61441321  0.77587055    -0.38350
N871        N  0.16071775  0.47756481  0.71494564    -0.37800
N872        N  0.04676281  0.56864586  0.82771205    -0.37800
C873        C  0.23890445  0.55176778  0.64399300    -0.04460
C874        C  0.26859370  0.56162147  0.63601057    -0.01580
C875        C  0.28659128  0.54415113  0.61557454     0.03410
C876        C  0.27524613  0.51638521  0.60372511    -0.04460
C877        C  0.24529592  0.50687355  0.61113490    -0.01570
C878        C  0.22700831  0.52473377  0.63097548     0.03400
C879        C  0.28051380  0.58985425  0.64875596     0.38050
C880        C  0.23323727  0.47881470  0.59809170     0.38040
C881        C  0.19635680  0.51475312  0.63882427     0.36470
C882        C  0.31710294  0.55425748  0.60739497     0.36470
N883        N  0.17187313  0.50685936  0.64503455    -0.38350
N884        N  0.34145200  0.56226356  0.60081571    -0.38350
N885        N  0.22371744  0.45643164  0.58762949    -0.37800
N886        N  0.28991937  0.61241093  0.65893849    -0.37800
C887        C  0.02529094  0.85467032  0.74323214    -0.04460
C888        C  0.02105573  0.88464557  0.75482886    -0.01580
C889        C  0.00470914  0.90657630  0.73777268     0.03410
C890        C  0.99262966  0.89895752  0.70868717    -0.04460
C891        C  0.99713254  0.86910360  0.69693651    -0.01570
C892        C  0.01337955  0.84710325  0.71407464     0.03400
C893        C  0.03217525  0.89278724  0.78503467     0.38050
C894        C  0.98558607  0.86098004  0.66690805     0.38040
C895        C  0.01826643  0.81680008  0.70119593     0.36470
C896        C  0.99902708  0.93655850  0.75116294     0.36470
N897        N  0.02203717  0.79263815  0.69090123    -0.38350
N898        N  0.99444288  0.96040181  0.76188396    -0.38350
N899        N  0.97636747  0.85440239  0.64300016    -0.37800
N900        N  0.04097808  0.89939426  0.80909205    -0.37800
C901        C  0.00032716  0.76539152  0.86046291    -0.04460
C902        C  0.00830401  0.76888489  0.89158113    -0.01580
C903        C  0.99384169  0.75086182  0.91401091     0.03410
C904        C  0.97070649  0.72980830  0.90564435    -0.04460
C905        C  0.95955700  0.73006190  0.87527468    -0.01570
C906        C  0.97450704  0.74762600  0.85276390     0.03400
C907        C  0.03249082  0.78972226  0.90059143     0.38050
C908        C  0.93364930  0.71134327  0.86655901     0.38040
C909        C  0.96342618  0.74727606  0.82151489     0.36470
C910        C  0.00323358  0.75379146  0.94570075     0.36470
N911        N  0.95457591  0.74714194  0.79660450    -0.38350
N912        N  0.01079070  0.75605225  0.97094108    -0.38350
N913        N  0.91281023  0.69671646  0.85941679    -0.37800
N914        N  0.05172699  0.80633925  0.90791162    -0.37800
C915        C  0.11273974  0.72420946  0.74606062    -0.04460
C916        C  0.12815751  0.70366841  0.76551438    -0.01580
C917        C  0.14482295  0.67907032  0.75319389     0.03410
C918        C  0.14574849  0.67427072  0.72129083    -0.04460
C919        C  0.13147365  0.69542910  0.70160536    -0.01570
C920        C  0.11516585  0.72069962  0.71404342     0.03400
C921        C  0.12703759  0.70763390  0.79847978     0.38050
C922        C  0.13304245  0.69082975  0.66886149     0.38040
C923        C  0.10028675  0.74254228  0.69410504     0.36470
C924        C  0.16069059  0.65834134  0.77374353     0.36470
N925        N  0.08849583  0.76007705  0.67819625    -0.38350
N926        N  0.17289885  0.64203918  0.79059820    -0.38350
N927        N  0.13428359  0.68718415  0.64268363    -0.37800
N928        N  0.12659505  0.71005973  0.82481027    -0.37800
C929        C  0.33129601  0.76323919  0.95614043    -0.04460
C930        C  0.36267519  0.75641094  0.95253348    -0.01580
C931        C  0.38484882  0.77242092  0.96969421     0.03410
C932        C  0.37593020  0.79581848  0.99071148    -0.04460
C933        C  0.34439222  0.80341180  0.99319618    -0.01570
C934        C  0.32234998  0.78725557  0.97603549     0.03400
C935        C  0.37228435  0.73198002  0.93201540     0.38050
C936        C  0.33414992  0.82814713  0.01300518     0.38040
C937        C  0.29029699  0.79603263  0.97835611     0.36470
C938        C  0.41679243  0.76386799  0.96583509     0.36470
N939        N  0.26476441  0.80299920  0.98015070    -0.38350
N940        N  0.44220016  0.75695181  0.96257878    -0.38350
N941        N  0.32572849  0.84782525  0.02872696    -0.37800
N942        N  0.38003732  0.71255772  0.91565392    -0.37800
C943        C  0.20980260  0.59964731  0.01364685    -0.04460
C944        C  0.23304680  0.59113773  0.99270051    -0.01580
C945        C  0.24896725  0.61375868  0.97615603     0.03410
C946        C  0.24130782  0.64495972  0.98017690    -0.04460
C947        C  0.22073972  0.65351636  0.00371475    -0.01570
C948        C  0.20494061  0.63100544  0.02031570     0.03400
C949        C  0.24019787  0.55904743  0.98770976     0.38050
C950        C  0.21525716  0.68566320  0.01047151     0.38040
C951        C  0.18195495  0.64047582  0.04246797     0.36470
C952        C  0.27189865  0.60467433  0.95386300     0.36470
N953        N  0.16356353  0.64814178  0.05999510    -0.38350
N954        N  0.29022423  0.59734016  0.93613113    -0.38350
N955        N  0.21090575  0.71128457  0.01578159    -0.37800
N956        N  0.24586372  0.53343820  0.98375759    -0.37800
C957        C  0.13840341  0.78491325  0.85810012    -0.04460
C958        C  0.16686971  0.79901106  0.85180971    -0.01580
C959        C  0.19372729  0.78892210  0.86682585     0.03410
C960        C  0.19225787  0.76498956  0.88837320    -0.04460
C961        C  0.16334322  0.75340686  0.89711244    -0.01570
C962        C  0.13661799  0.76352061  0.88232210     0.03400
C963        C  0.16907008  0.82272373  0.82884045     0.38050
C964        C  0.16095631  0.72898437  0.91948600     0.38040
C965        C  0.10744392  0.75046697  0.89140479     0.36470
C966        C  0.22295908  0.80289035  0.85980074     0.36470
N967        N  0.08455473  0.73941501  0.89871808    -0.38350
N968        N  0.24627973  0.81408544  0.85427946    -0.38350
N969        N  0.15895419  0.70943763  0.93715018    -0.37800
N970        N  0.17092780  0.84175231  0.81061407    -0.37800
C971        C  0.26341340  0.65159054  0.84080116    -0.04460
C972        C  0.24623904  0.62428577  0.84262579    -0.01580
C973        C  0.23790989  0.60834451  0.81586439     0.03410
C974        C  0.24634422  0.61982110  0.78682520    -0.04460
C975        C  0.26652818  0.64506430  0.78527468    -0.01570
C976        C  0.27507902  0.66087194  0.81217852     0.03400
C977        C  0.23588819  0.61309550  0.87207878     0.38050
C978        C  0.27791982  0.65535234  0.75590364     0.38040
C979        C  0.29396641  0.68799993  0.80998784     0.36470
C980        C  0.21849857  0.58156840  0.81852072     0.36470
N981        N  0.30903813  0.70964236  0.80816448    -0.38350
N982        N  0.20295792  0.56029727  0.82077041    -0.38350
N983        N  0.28698183  0.66354536  0.73246532    -0.37800
N984        N  0.22725016  0.60412540  0.89537981    -0.37800
loop_ 
_geom_bond_atom_site_label_1 
_geom_bond_atom_site_label_2 
_geom_bond_distance 
_geom_bond_site_symmetry_2 
_ccdc_geom_bond_type 
In1           O3   2.266       .  S
In1           O4   2.205       .  S
In1          O12   2.223       .  S
In1           O6   2.266       .  S
In1           O8   2.274       .  S
In1           O9   2.223       .  S
In1          O10   2.216       .  S
In1          O13   2.264       .  S
C2            O8   1.266       .  A
C2           O10   1.258       .  A
C2          C971   1.489       .  S
O3           C11   1.265       .  A
O4           C11   1.258       .  A
C5           O12   1.255       .  A
C5            O6   1.263       .  A
C5          C929   1.489       .  S
C7            O9   1.256       .  A
C7           O13   1.261       .  A
C7          C960   1.487       .  S
C11         C946   1.485       .  S
In14         O16   2.247       .  S
In14         O17   2.229       .  S
In14         O25   2.226       .  S
In14         O19   2.244       .  S
In14         O21   2.278       .  S
In14         O22   2.228       .  S
In14         O23   2.196       .  S
In14         O26   2.259       .  S
C15          O21   1.266       .  A
C15          O23   1.256       .  A
C15         C957   1.494       .  S
O16          C24   1.263       .  A
O17          C24   1.262       .  A
C18          O25   1.259       .  A
C18          O19   1.264       .  A
C18         C887   1.489       .  S
C20          O22   1.260       .  A
C20          O26   1.261       .  A
C20         C915   1.476       .  S
C24         C901   1.488       .  S
In27         O29   2.274       .  S
In27         O30   2.225       .  S
In27         O38   2.230       .  S
In27         O32   2.266       .  S
In27         O34   2.267       .  S
In27         O35   2.240       .  S
In27         O36   2.237       .  S
In27         O39   2.239       .  S
C28          O34   1.260       .  A
C28          O36   1.256       .  A
C28         C918   1.476       .  S
O29          C37   1.263       .  A
O30          C37   1.258       .  A
C31          O38   1.255       .  A
C31          O32   1.261       .  A
C31         C873   1.477       .  S
C33          O35   1.263       .  A
C33          O39   1.262       .  A
C33         C974   1.493       .  S
C37         C862   1.484       .  S
In40         O42   2.258       .  S
In40         O43   2.244   1_556  S
In40         O51   2.231       .  S
In40         O45   2.262       .  S
In40         O47   2.271       .  S
In40         O48   2.222   1_556  S
In40         O49   2.223       .  S
In40         O52   2.260   1_565  S
C41          O47   1.265       .  A
C41          O49   1.259       .  A
C41         C845   1.483       .  S
O42          C50   1.260       .  A
O43          C50   1.259   1_554  A
C44          O51   1.257       .  A
C44          O45   1.264       .  A
C44         C803   1.500   1_565  S
C46          O48   1.262   1_545  A
C46          O52   1.263   1_554  A
C46         C831   1.494       .  S
C50         C817   1.483       .  S
In53         O55   2.256       .  S
In53         O56   2.224       .  S
In53         O64   2.237       .  S
In53         O58   2.241       .  S
In53         O60   2.271       .  S
In53         O61   2.213   1_545  S
In53         O62   2.236       .  S
In53         O65   2.271       .  S
C54          O60   1.261       .  A
C54          O62   1.258       .  A
C54         C834   1.494       .  S
O55          C63   1.265       .  A
O56          C63   1.262       .  A
C57          O64   1.258       .  A
C57          O58   1.262       .  A
C57         C764   1.495       .  S
C59          O61   1.258       .  A
C59          O65   1.260   1_565  A
C59         C789   1.480       .  S
C63         C775   1.496       .  S
In66         O68   2.258       .  S
In66         O69   2.231       .  S
In66         O77   2.218       .  S
In66         O71   2.255       .  S
In66         O73   2.298       .  S
In66         O74   2.248       .  S
In66         O75   2.197       .  S
In66         O78   2.229       .  S
C67          O73   1.265       .  A
C67          O75   1.251       .  A
C67         C792   1.484       .  S
O68          C76   1.266       .  A
O69          C76   1.264       .  A
C70          O77   1.258       .  A
C70          O71   1.266       .  A
C70         C932   1.503   1_554  S
C72          O74   1.264       .  A
C72          O78   1.260       .  A
C72         C848   1.486   1_554  S
C76         C750   1.482       .  S
In79         O81   2.235       .  S
In79         O82   2.233       .  S
In79         O90   2.200       .  S
In79         O84   2.261       .  S
In79         O86   2.279       .  S
In79         O87   2.233       .  S
In79         O88   2.190       .  S
In79         O91   2.228       .  S
C80          O86   1.271       .  A
C80          O88   1.258       .  A
C80         C733   1.490       .  S
O81          C89   1.263       .  A
O82          C89   1.263       .  A
C83          O90   1.259       .  A
C83          O84   1.268       .  A
C83         C761   1.494       .  S
C85          O87   1.265       .  A
C85          O91   1.263       .  A
C85         C722   1.487       .  S
C89         C708   1.477       .  S
In92         O94   2.251       .  S
In92         O95   2.237       .  S
In92        O103   2.235       .  S
In92         O97   2.251       .  S
In92         O99   2.273       .  S
In92        O100   2.219       .  S
In92        O101   2.237       .  S
In92        O104   2.262       .  S
C93          O99   1.261       .  A
C93         O101   1.257       .  A
C93         C691   1.493       .  S
O94         C102   1.263       .  A
O95         C102   1.262       .  A
C96         O103   1.257       .  A
C96          O97   1.262       .  A
C96         C666   1.482       .  S
C98         O100   1.260       .  A
C98         O104   1.261       .  A
C98         C736   1.479       .  S
C102        C680   1.491       .  S
In105       O107   2.251       .  S
In105       O108   2.230       .  S
In105       O116   2.225       .  S
In105       O110   2.259       .  S
In105       O112   2.269       .  S
In105       O113   2.238       .  S
In105       O114   2.254       .  S
In105       O117   2.260       .  S
C106        O112   1.260       .  A
C106        O114   1.256       .  A
C106        C719   1.485       .  S
O107        C115   1.265       .  A
O108        C115   1.264       .  A
C109        O116   1.257       .  A
C109        O110   1.264       .  A
C109        C635   1.487       .  S
C111        O113   1.261       .  A
C111        O117   1.260       .  A
C111        C694   1.494       .  S
C115        C649   1.496       .  S
In118       O120   2.257       .  S
In118       O121   2.233       .  S
In118       O129   2.230       .  S
In118       O123   2.263       .  S
In118       O125   2.274       .  S
In118       O126   2.233       .  S
In118       O127   2.244       .  S
In118       O130   2.258       .  S
C119        O125   1.261       .  A
C119        O127   1.257       .  A
C119        C621   1.483       .  S
O120        C128   1.263       .  A
O121        C128   1.261       .  A
C122        O129   1.256       .  A
C122        O123   1.263       .  A
C122        C593   1.484       .  S
C124        O126   1.261       .  A
C124        O130   1.262       .  A
C124        C607   1.497       .  S
C128        C778   1.490       .  S
In131       O133   2.259       .  S
In131       O134   2.231       .  S
In131       O142   2.243       .  S
In131       O136   2.251       .  S
In131       O138   2.270       .  S
In131       O139   2.242       .  S
In131       O140   2.229       .  S
In131       O143   2.234       .  S
C132        O138   1.263       .  A
C132        O140   1.258       .  A
C132        C610   1.493       .  S
O133        C141   1.262       .  A
O134        C141   1.259       .  A
C135        O142   1.258       .  A
C135        O136   1.260       .  A
C135        C568   1.483       .  S
C137        O139   1.262       .  A
C137        O143   1.261       .  A
C137        C579   1.474       .  S
C141        C820   1.496       .  S
In144       O146   2.256       .  S
In144       O147   2.214       .  S
In144       O155   2.214       .  S
In144       O149   2.257       .  S
In144       O151   2.276       .  S
In144       O152   2.238       .  S
In144       O153   2.206       .  S
In144       O156   2.244       .  S
C145        O151   1.267       .  A
C145        O153   1.257       .  A
C145        C582   1.486       .  S
O146        C154   1.265       .  A
O147        C154   1.262       .  A
C148        O155   1.258       .  A
C148        O149   1.265       .  A
C148        C551   1.483       .  S
C150        O152   1.262       .  A
C150        O156   1.261       .  A
C150        C624   1.487       .  S
C154        C747   1.484       .  S
In157       O159   2.249       .  S
In157       O160   2.229       .  S
In157       O168   2.225       .  S
In157       O162   2.258       .  S
In157       O164   2.271       .  S
In157       O165   2.228   1_565  S
In157       O166   2.228       .  S
In157       O169   2.254       .  S
C158        O164   1.260       .  A
C158        O166   1.256       .  A
C158        C537   1.485       .  S
O159        C167   1.264       .  A
O160        C167   1.262       .  A
C161        O168   1.256       .  A
C161        O162   1.261       .  A
C161        C890   1.489       .  S
C163        O165   1.261       .  A
C163        O169   1.263   1_545  A
C163        C523   1.488       .  S
C167        C509   1.492       .  S
In170       O172   2.245       .  S
In170       O173   2.227   1_455  S
In170       O181   2.223       .  S
In170       O175   2.273       .  S
In170       O177   2.268       .  S
In170       O178   2.229   1_455  S
In170       O179   2.235       .  S
In170       O182   2.261       .  S
C171        O177   1.259       .  A
C171        O179   1.257       .  A
C171        C526   1.481       .  S
O172        C180   1.265   1_455  A
O173        C180   1.263       .  A
C174        O181   1.254       .  A
C174        O175   1.261       .  A
C174        C663   1.480       .  S
C176        O178   1.259       .  A
C176        O182   1.263   1_655  A
C176        C498   1.487       .  S
C180        C484   1.492       .  S
In183       O185   2.263       .  S
In183       O186   2.223       .  S
In183       O194   2.235       .  S
In183       O188   2.265       .  S
In183       O190   2.264       .  S
In183       O191   2.208       .  S
In183       O192   2.234       .  S
In183       O195   2.278       .  S
C184        O190   1.263       .  A
C184        O192   1.258       .  A
C184        C495   1.493       .  S
O185        C193   1.266       .  A
O186        C193   1.260       .  A
C187        O194   1.255       .  A
C187        O188   1.260       .  A
C187        C596   1.477   1_545  S
C189        O191   1.257       .  A
C189        O195   1.261       .  A
C189        C540   1.484   1_545  S
C193        C470   1.491       .  S
In196       O198   2.259       .  S
In196       O199   2.229       .  S
In196       O207   2.254   1_556  S
In196       O201   2.253       .  S
In196       O203   2.270       .  S
In196       O204   2.239       .  S
In196       O205   2.241       .  S
In196       O208   2.253       .  S
C197        O203   1.261       .  A
C197        O205   1.257       .  A
C197        C456   1.488       .  S
O198        C206   1.262       .  A
O199        C206   1.260       .  A
C200        O207   1.256       .  A
C200        O201   1.257   1_554  A
C200        C565   1.479       .  S
C202        O204   1.261   1_554  A
C202        O208   1.263   1_554  A
C202        C439   1.490   1_655  S
C206        C904   1.493       .  S
In209       O211   2.236       .  S
In209       O212   2.233       .  S
In209       O220   2.224       .  S
In209       O214   2.256       .  S
In209       O216   2.278       .  S
In209       O217   2.237       .  S
In209       O218   2.207       .  S
In209       O221   2.249       .  S
C210        O216   1.269       .  A
C210        O218   1.259       .  A
C210        C442   1.498       .  S
O211        C219   1.262       .  A
O212        C219   1.262       .  A
C213        O220   1.259       .  A
C213        O214   1.265       .  A
C213        C638   1.490       .  S
C215        O217   1.261       .  A
C215        O221   1.262       .  A
C215        C425   1.478   1_554  S
C219        C943   1.485       .  S
In222       O224   2.262       .  S
In222       O225   2.218       .  S
In222       O233   2.220   1_455  S
In222       O227   2.261       .  S
In222       O229   2.272       .  S
In222       O230   2.230   1_455  S
In222       O231   2.210       .  S
In222       O234   2.262   1_455  S
C223        O229   1.264       .  A
C223        O231   1.257       .  A
C223        C428   1.479       .  S
O224        C232   1.264       .  A
O225        C232   1.260       .  A
C226        O233   1.257       .  A
C226        O227   1.263   1_655  A
C226        C411   1.484       .  S
C228        O230   1.260       .  A
C228        O234   1.262       .  A
C228        C453   1.492       .  S
C232        C859   1.488       .  S
In235       O237   2.260       .  S
In235       O238   2.222       .  S
In235       O246   2.244       .  S
In235       O240   2.243       .  S
In235       O242   2.260       .  S
In235       O243   2.257       .  S
In235       O244   2.239       .  S
In235       O247   2.232       .  S
C236        O242   1.261       .  A
C236        O244   1.258       .  A
C236        C397   1.491       .  S
O237        C245   1.263       .  A
O238        C245   1.260       .  A
C239        O246   1.259       .  A
C239        O240   1.260       .  A
C239        C414   1.491       .  S
C241        O243   1.261       .  A
C241        O247   1.258       .  A
C241        C386   1.475       .  S
C245        C481   1.478       .  S
In248       O250   2.256       .  S
In248       O251   2.227       .  S
In248       O259   2.229       .  S
In248       O253   2.258       .  S
In248       O255   2.277       .  S
In248       O256   2.231       .  S
In248       O257   2.206       .  S
In248       O260   2.257       .  S
C249        O255   1.266       .  A
C249        O257   1.258       .  A
C249        C383   1.481       .  S
O250        C258   1.262       .  A
O251        C258   1.260       .  A
C252        O259   1.258       .  A
C252        O253   1.263       .  A
C252        C806   1.489       .  S
C254        O256   1.261       .  A
C254        O260   1.263       .  A
C254        C369   1.504       .  S
C258        C512   1.490       .  S
In261       O263   2.264       .  S
In261       O264   2.228       .  S
In261       O272   2.242       .  S
In261       O266   2.250       .  S
In261       O268   2.289       .  S
In261       O269   2.239       .  S
In261       O270   2.226       .  S
In261       O273   2.258       .  S
C262        O268   1.263       .  A
C262        O270   1.255       .  A
C262        C372   1.491       .  S
O263        C271   1.264       .  A
O264        C271   1.261       .  A
C265        O272   1.259       .  A
C265        O266   1.263       .  A
C265        C355   1.490       .  S
C267        O269   1.259       .  A
C267        O273   1.261       .  A
C267        C400   1.496       .  S
C271        C467   1.481       .  S
In274       O276   2.254       .  S
In274       O277   2.228       .  S
In274       O285   2.233       .  S
In274       O279   2.257       .  S
In274       O281   2.265       .  S
In274       O282   2.231       .  S
In274       O283   2.234       .  S
In274       O286   2.253       .  S
C275        O281   1.262       .  A
C275        O283   1.258       .  A
C275        C341   1.478       .  S
O276        C284   1.264       .  A
O277        C284   1.261       .  A
C278        O285   1.256       .  A
C278        O279   1.261       .  A
C278        C554   1.490       .  S
C280        O282   1.259       .  A
C280        O286   1.260       .  A
C280        C327   1.493       .  S
C284        C652   1.487       .  S
In287       O289   2.254       .  S
In287       O290   2.232       .  S
In287       O298   2.245       .  S
In287       O292   2.252       .  S
In287       O294   2.270       .  S
In287       O295   2.243       .  S
In287       O296   2.227       .  S
In287       O299   2.243       .  S
C288        O294   1.264       .  A
C288        O296   1.259       .  A
C288        C313   1.490       .  S
O289        C297   1.261       .  A
O290        C297   1.262       .  A
C291        O298   1.256       .  A
C291        O292   1.259       .  A
C291        C876   1.476       .  S
C293        O295   1.263       .  A
C293        O299   1.262       .  A
C293        C344   1.484       .  S
C297        C677   1.491       .  S
In300       O302   2.264       .  S
In300       O303   2.224       .  S
In300       O311   2.224       .  S
In300       O305   2.270       .  S
In300       O307   2.282       .  S
In300       O308   2.206       .  S
In300       O309   2.207       .  S
In300       O312   2.277       .  S
C301        O307   1.266       .  A
C301        O309   1.257       .  A
C301        C330   1.487       .  S
O302        C310   1.260       .  A
O303        C310   1.257       .  A
C304        O311   1.256       .  A
C304        O305   1.263       .  A
C304        C358   1.483       .  S
C306        O308   1.258       .  A
C306        O312   1.266       .  A
C306        C316   1.499       .  S
C310        C705   1.488       .  S
C313        C314   1.411       .  A
C313        C318   1.415       .  A
C314        C315   1.408       .  A
C314        C319   1.450       .  S
C315        C316   1.418       .  A
C315        C322   1.453       .  S
C316        C317   1.418       .  A
C317        C318   1.417       .  A
C317        C320   1.450       .  S
C318        C321   1.451       .  S
C319        N326   1.157       .  T
C320        N325   1.157       .  T
C321        N323   1.157       .  T
C322        N324   1.158       .  T
C327        C328   1.418       .  A
C327        C332   1.417       .  A
C328        C329   1.416       .  A
C328        C333   1.451       .  S
C329        C330   1.411       .  A
C329        C336   1.450       .  S
C330        C331   1.414       .  A
C331        C332   1.406       .  A
C331        C334   1.454       .  S
C332        C335   1.453       .  S
C333        N340   1.157       .  T
C334        N339   1.157       .  T
C335        N337   1.158       .  T
C336        N338   1.157       .  T
C341        C342   1.410       .  A
C341        C346   1.410       .  A
C342        C343   1.407       .  A
C342        C347   1.451       .  S
C343        C344   1.413       .  A
C343        C350   1.449       .  S
C344        C345   1.414       .  A
C345        C346   1.414       .  A
C345        C348   1.450       .  S
C346        C349   1.449       .  S
C347        N354   1.157       .  T
C348        N353   1.157       .  T
C349        N351   1.157       .  T
C350        N352   1.156       .  T
C355        C356   1.418       .  A
C355        C360   1.415       .  A
C356        C357   1.413       .  A
C356        C361   1.451       .  S
C357        C358   1.410       .  A
C357        C364   1.451       .  S
C358        C359   1.412       .  A
C359        C360   1.410       .  A
C359        C362   1.452       .  S
C360        C363   1.452       .  S
C361        N368   1.157       .  T
C362        N367   1.157       .  T
C363        N365   1.157       .  T
C364        N366   1.157       .  T
C369        C370   1.420       .  A
C369        C374   1.422       .  A
C370        C371   1.410       .  A
C370        C375   1.452       .  S
C371        C372   1.411       .  A
C371        C378   1.452       .  S
C372        C373   1.410       .  A
C373        C374   1.416       .  A
C373        C376   1.449       .  S
C374        C377   1.450       .  S
C375        N382   1.158       .  T
C376        N381   1.157       .  T
C377        N379   1.158       .  T
C378        N380   1.157       .  T
C383        C384   1.414       .  A
C383        C388   1.413       .  A
C384        C385   1.417       .  A
C384        C389   1.449       .  S
C385        C386   1.410       .  A
C385        C392   1.449       .  S
C386        C387   1.410       .  A
C387        C388   1.402       .  A
C387        C390   1.453       .  S
C388        C391   1.453       .  S
C389        N396   1.157       .  T
C390        N395   1.157       .  T
C391        N393   1.157       .  T
C392        N394   1.157       .  T
C397        C398   1.412       .  A
C397        C402   1.416       .  A
C398        C399   1.411       .  A
C398        C403   1.451       .  S
C399        C400   1.416       .  A
C399        C406   1.451       .  S
C400        C401   1.418       .  A
C401        C402   1.413       .  A
C401        C404   1.450       .  S
C402        C405   1.452       .  S
C403        N410   1.157       .  T
C404        N409   1.157       .  T
C405        N407   1.157       .  T
C406        N408   1.157       .  T
C411        C412   1.411       .  A
C411        C416   1.413       .  A
C412        C413   1.412       .  A
C412        C417   1.451       .  S
C413        C414   1.418       .  A
C413        C420   1.451       .  S
C414        C415   1.416       .  A
C415        C416   1.409       .  A
C415        C418   1.452       .  S
C416        C419   1.453       .  S
C417        N424   1.157       .  T
C418        N423   1.157       .  T
C419        N421   1.157       .  T
C420        N422   1.157       .  T
C425        C426   1.408       .  A
C425        C430   1.412       .  A
C426        C427   1.401       .  A
C426        C431   1.449       .  S
C427        C428   1.412       .  A
C427        C434   1.453       .  S
C428        C429   1.412       .  A
C429        C430   1.417       .  A
C429        C432   1.448       .  S
C430        C433   1.448       .  S
C431        N438   1.155   1_556  T
C432        N437   1.157       .  T
C433        N435   1.157       .  T
C434        N436   1.157       .  T
C439        C440   1.414       .  A
C439        C444   1.414       .  A
C440        C441   1.410       .  A
C440        C445   1.453   1_554  S
C441        C442   1.419       .  A
C441        C448   1.453   1_554  S
C442        C443   1.417       .  A
C443        C444   1.416       .  A
C443        C446   1.450       .  S
C444        C447   1.451   1_455  S
C445        N452   1.158       .  T
C446        N451   1.157       .  T
C447        N449   1.157       .  T
C448        N450   1.158       .  T
C453        C454   1.414       .  A
C453        C458   1.418       .  A
C454        C455   1.410       .  A
C454        C459   1.452       .  S
C455        C456   1.411       .  A
C455        C462   1.450       .  S
C456        C457   1.414       .  A
C457        C458   1.414       .  A
C457        C460   1.452       .  S
C458        C461   1.452       .  S
C459        N466   1.157       .  T
C460        N465   1.157       .  T
C461        N463   1.158       .  T
C462        N464   1.157       .  T
C467        C468   1.410       .  A
C467        C472   1.412       .  A
C468        C469   1.405       .  A
C468        C473   1.454       .  S
C469        C470   1.417       .  A
C469        C476   1.451       .  S
C470        C471   1.415       .  A
C471        C472   1.417       .  A
C471        C474   1.450       .  S
C472        C475   1.449       .  S
C473        N480   1.157       .  T
C474        N479   1.157       .  T
C475        N477   1.157       .  T
C476        N478   1.157       .  T
C481        C482   1.409       .  A
C481        C486   1.410       .  A
C482        C483   1.414       .  A
C482        C487   1.451       .  S
C483        C484   1.419       .  A
C483        C490   1.451   1_655  S
C484        C485   1.419       .  A
C485        C486   1.407       .  A
C485        C488   1.452       .  S
C486        C489   1.454       .  S
C487        N494   1.157   1_655  T
C488        N493   1.157       .  T
C489        N491   1.157       .  T
C490        N492   1.157       .  T
C495        C496   1.418       .  A
C495        C500   1.415       .  A
C496        C497   1.414       .  A
C496        C501   1.451       .  S
C497        C498   1.414       .  A
C497        C504   1.452       .  S
C498        C499   1.412       .  A
C499        C500   1.410       .  A
C499        C502   1.452       .  S
C500        C503   1.451       .  S
C501        N508   1.157       .  T
C502        N507   1.157       .  T
C503        N505   1.157       .  T
C504        N506   1.157   1_655  T
C509        C510   1.416   1_565  A
C509        C514   1.416       .  A
C510        C511   1.412       .  A
C510        C515   1.452       .  S
C511        C512   1.415       .  A
C511        C518   1.452       .  S
C512        C513   1.414   1_545  A
C513        C514   1.411       .  A
C513        C516   1.452       .  S
C514        C517   1.451       .  S
C515        N522   1.157       .  T
C516        N521   1.157       .  T
C517        N519   1.157       .  T
C518        N520   1.158       .  T
C523        C524   1.415       .  A
C523        C528   1.417   1_655  A
C524        C525   1.405       .  A
C524        C529   1.452       .  S
C525        C526   1.413   1_655  A
C525        C532   1.455       .  S
C526        C527   1.410       .  A
C527        C528   1.416       .  A
C527        C530   1.449       .  S
C528        C531   1.450       .  S
C529        N536   1.157       .  T
C530        N535   1.157       .  T
C531        N533   1.157   1_545  T
C532        N534   1.157       .  T
C537        C538   1.415       .  A
C537        C542   1.415   1_565  A
C538        C539   1.418       .  A
C538        C543   1.449       .  S
C539        C540   1.414       .  A
C539        C546   1.449       .  S
C540        C541   1.410   1_565  A
C541        C542   1.400       .  A
C541        C544   1.454       .  S
C542        C545   1.453       .  S
C543        N550   1.157       .  T
C544        N549   1.158       .  T
C545        N547   1.157       .  T
C546        N548   1.157       .  T
C551        C552   1.410       .  A
C551        C556   1.414       .  A
C552        C553   1.411       .  A
C552        C557   1.452       .  S
C553        C554   1.419       .  A
C553        C560   1.452       .  S
C554        C555   1.415       .  A
C555        C556   1.409       .  A
C555        C558   1.452       .  S
C556        C559   1.453       .  S
C557        N564   1.157       .  T
C558        N563   1.157       .  T
C559        N561   1.157       .  T
C560        N562   1.158       .  T
C565        C566   1.412       .  A
C565        C570   1.410       .  A
C566        C567   1.410       .  A
C566        C571   1.452   1_554  S
C567        C568   1.414       .  A
C567        C574   1.452       .  S
C568        C569   1.414       .  A
C569        C570   1.411       .  A
C569        C572   1.451       .  S
C570        C573   1.451       .  S
C571        N578   1.157       .  T
C572        N577   1.157       .  T
C573        N575   1.157       .  T
C574        N576   1.157       .  T
C579        C580   1.410       .  A
C579        C584   1.408       .  A
C580        C581   1.416       .  A
C580        C585   1.449       .  S
C581        C582   1.415       .  A
C581        C588   1.449       .  S
C582        C583   1.419       .  A
C583        C584   1.403       .  A
C583        C586   1.454       .  S
C584        C587   1.455       .  S
C585        N592   1.157       .  T
C586        N591   1.157       .  T
C587        N589   1.157       .  T
C588        N590   1.157       .  T
C593        C594   1.413       .  A
C593        C598   1.416       .  A
C594        C595   1.411       .  A
C594        C599   1.451       .  S
C595        C596   1.411       .  A
C595        C602   1.452   1_565  S
C596        C597   1.409       .  A
C597        C598   1.411       .  A
C597        C600   1.451       .  S
C598        C601   1.452       .  S
C599        N606   1.157       .  T
C600        N605   1.157       .  T
C601        N603   1.157       .  T
C602        N604   1.157       .  T
C607        C608   1.415       .  A
C607        C612   1.416       .  A
C608        C609   1.410       .  A
C608        C613   1.451       .  S
C609        C610   1.414       .  A
C609        C616   1.451       .  S
C610        C611   1.417       .  A
C611        C612   1.414       .  A
C611        C614   1.450       .  S
C612        C615   1.451       .  S
C613        N620   1.157       .  T
C614        N619   1.157       .  T
C615        N617   1.158       .  T
C616        N618   1.157       .  T
C621        C622   1.410       .  A
C621        C626   1.410       .  A
C622        C623   1.410       .  A
C622        C627   1.448       .  S
C623        C624   1.416       .  A
C623        C630   1.453       .  S
C624        C625   1.413       .  A
C625        C626   1.413       .  A
C625        C628   1.450       .  S
C626        C629   1.448       .  S
C627        N634   1.155       .  T
C628        N633   1.157       .  T
C629        N631   1.157       .  T
C630        N632   1.158       .  T
C635        C636   1.416       .  A
C635        C640   1.412       .  A
C636        C637   1.411       .  A
C636        C641   1.453       .  S
C637        C638   1.414       .  A
C637        C644   1.452       .  S
C638        C639   1.417       .  A
C639        C640   1.411       .  A
C639        C642   1.451       .  S
C640        C643   1.452       .  S
C641        N648   1.158       .  T
C642        N647   1.157       .  T
C643        N645   1.157       .  T
C644        N646   1.157       .  T
C649        C650   1.418       .  A
C649        C654   1.418       .  A
C650        C651   1.413       .  A
C650        C655   1.451       .  S
C651        C652   1.412       .  A
C651        C658   1.452       .  S
C652        C653   1.413       .  A
C653        C654   1.412       .  A
C653        C656   1.452       .  S
C654        C657   1.452       .  S
C655        N662   1.157       .  T
C656        N661   1.157       .  T
C657        N659   1.157       .  T
C658        N660   1.157       .  T
C663        C664   1.414       .  A
C663        C668   1.411       .  A
C664        C665   1.409       .  A
C664        C669   1.452       .  S
C665        C666   1.412       .  A
C665        C672   1.452       .  S
C666        C667   1.415       .  A
C667        C668   1.412       .  A
C667        C670   1.451       .  S
C668        C671   1.451       .  S
C669        N676   1.157       .  T
C670        N675   1.157       .  T
C671        N673   1.157       .  T
C672        N674   1.157       .  T
C677        C678   1.413       .  A
C677        C682   1.416       .  A
C678        C679   1.410       .  A
C678        C683   1.453       .  S
C679        C680   1.415       .  A
C679        C686   1.446       .  S
C680        C681   1.414       .  A
C681        C682   1.413       .  A
C681        C684   1.451       .  S
C682        C685   1.449       .  S
C683        N690   1.157       .  T
C684        N689   1.157       .  T
C685        N687   1.157       .  T
C686        N688   1.155       .  T
C691        C692   1.411       .  A
C691        C696   1.416       .  A
C692        C693   1.408       .  A
C692        C697   1.447       .  S
C693        C694   1.412       .  A
C693        C700   1.451       .  S
C694        C695   1.415       .  A
C695        C696   1.414       .  A
C695        C698   1.449       .  S
C696        C699   1.449       .  S
C697        N704   1.156       .  T
C698        N703   1.158       .  T
C699        N701   1.157       .  T
C700        N702   1.157       .  T
C705        C706   1.416       .  A
C705        C710   1.418       .  A
C706        C707   1.414       .  A
C706        C711   1.450       .  S
C707        C708   1.409       .  A
C707        C714   1.450       .  S
C708        C709   1.410       .  A
C709        C710   1.406       .  A
C709        C712   1.454       .  S
C710        C713   1.453       .  S
C711        N718   1.157       .  T
C712        N717   1.157       .  T
C713        N715   1.157       .  T
C714        N716   1.157       .  T
C719        C720   1.412       .  A
C719        C724   1.412       .  A
C720        C721   1.408       .  A
C720        C725   1.446       .  S
C721        C722   1.415       .  A
C721        C728   1.454       .  S
C722        C723   1.413       .  A
C723        C724   1.414       .  A
C723        C726   1.450       .  S
C724        C727   1.449       .  S
C725        N732   1.154       .  T
C726        N731   1.157       .  T
C727        N729   1.157       .  T
C728        N730   1.158       .  T
C733        C734   1.415       .  A
C733        C738   1.420       .  A
C734        C735   1.417       .  A
C734        C739   1.449       .  S
C735        C736   1.412       .  A
C735        C742   1.450       .  S
C736        C737   1.408       .  A
C737        C738   1.403       .  A
C737        C740   1.455       .  S
C738        C741   1.453       .  S
C739        N746   1.157       .  T
C740        N745   1.157       .  T
C741        N743   1.157       .  T
C742        N744   1.157       .  T
C747        C748   1.412       .  A
C747        C752   1.414       .  A
C748        C749   1.404       .  A
C748        C753   1.455       .  S
C749        C750   1.412       .  A
C749        C756   1.449       .  S
C750        C751   1.412       .  A
C751        C752   1.418       .  A
C751        C754   1.449       .  S
C752        C755   1.449       .  S
C753        N760   1.157       .  T
C754        N759   1.157       .  T
C755        N757   1.157       .  T
C756        N758   1.156       .  T
C761        C762   1.415       .  A
C761        C766   1.419       .  A
C762        C763   1.414       .  A
C762        C767   1.451       .  S
C763        C764   1.419       .  A
C763        C770   1.452       .  S
C764        C765   1.416       .  A
C765        C766   1.409       .  A
C765        C768   1.453       .  S
C766        C769   1.454       .  S
C767        N774   1.158       .  T
C768        N773   1.158       .  T
C769        N771   1.157       .  T
C770        N772   1.157       .  T
C775        C776   1.416   1_545  A
C775        C780   1.416       .  A
C776        C777   1.412       .  A
C776        C781   1.452       .  S
C777        C778   1.413       .  A
C777        C784   1.449       .  S
C778        C779   1.414   1_565  A
C779        C780   1.413       .  A
C779        C782   1.452       .  S
C780        C783   1.449       .  S
C781        N788   1.157       .  T
C782        N787   1.157       .  T
C783        N785   1.157       .  T
C784        N786   1.156       .  T
C789        C790   1.414       .  A
C789        C794   1.410       .  A
C790        C791   1.419       .  A
C790        C795   1.449       .  S
C791        C792   1.412       .  A
C791        C798   1.448       .  S
C792        C793   1.418       .  A
C793        C794   1.401       .  A
C793        C796   1.455       .  S
C794        C797   1.456       .  S
C795        N802   1.157   1_565  T
C796        N801   1.157       .  T
C797        N799   1.157       .  T
C798        N800   1.157       .  T
C803        C804   1.422       .  A
C803        C808   1.418       .  A
C804        C805   1.413       .  A
C804        C809   1.451       .  S
C805        C806   1.411       .  A
C805        C812   1.453       .  S
C806        C807   1.414       .  A
C807        C808   1.413       .  A
C807        C810   1.453       .  S
C808        C811   1.452       .  S
C809        N816   1.157       .  T
C810        N815   1.157       .  T
C811        N813   1.157       .  T
C812        N814   1.157       .  T
C817        C818   1.411   1_556  A
C817        C822   1.410   1_556  A
C818        C819   1.411       .  A
C818        C823   1.452       .  S
C819        C820   1.419       .  A
C819        C826   1.452       .  S
C820        C821   1.419       .  A
C821        C822   1.412       .  A
C821        C824   1.451       .  S
C822        C825   1.450   1_554  S
C823        N830   1.157   1_554  T
C824        N829   1.158       .  T
C825        N827   1.157       .  T
C826        N828   1.158       .  T
C831        C832   1.415       .  A
C831        C836   1.412       .  A
C832        C833   1.416       .  A
C832        C837   1.451   1_554  S
C833        C834   1.418       .  A
C833        C840   1.450       .  S
C834        C835   1.414       .  A
C835        C836   1.408       .  A
C835        C838   1.449       .  S
C836        C839   1.452       .  S
C837        N844   1.158       .  T
C838        N843   1.156       .  T
C839        N841   1.157       .  T
C840        N842   1.157       .  T
C845        C846   1.411       .  A
C845        C850   1.413       .  A
C846        C847   1.404       .  A
C846        C851   1.448   1_556  S
C847        C848   1.413       .  A
C847        C854   1.453   1_556  S
C848        C849   1.413       .  A
C849        C850   1.416       .  A
C849        C852   1.449       .  S
C850        C853   1.449       .  S
C851        N858   1.155       .  T
C852        N857   1.157       .  T
C853        N855   1.157       .  T
C854        N856   1.157       .  T
C859        C860   1.415       .  A
C859        C864   1.415       .  A
C860        C861   1.406       .  A
C860        C865   1.454       .  S
C861        C862   1.413       .  A
C861        C868   1.452       .  S
C862        C863   1.412       .  A
C863        C864   1.416       .  A
C863        C866   1.450       .  S
C864        C867   1.450       .  S
C865        N872   1.158       .  T
C866        N871   1.157       .  T
C867        N869   1.157       .  T
C868        N870   1.157       .  T
C873        C874   1.412       .  A
C873        C878   1.411       .  A
C874        C875   1.410       .  A
C874        C879   1.451       .  S
C875        C876   1.410       .  A
C875        C882   1.450       .  S
C876        C877   1.412       .  A
C877        C878   1.410       .  A
C877        C880   1.452       .  S
C878        C881   1.451       .  S
C879        N886   1.157       .  T
C880        N885   1.157       .  T
C881        N883   1.157       .  T
C882        N884   1.157       .  T
C887        C888   1.414       .  A
C887        C892   1.417       .  A
C888        C889   1.410       .  A
C888        C893   1.453       .  S
C889        C890   1.418   1_455  A
C889        C896   1.453   1_455  S
C890        C891   1.413       .  A
C891        C892   1.411   1_655  A
C891        C894   1.452       .  S
C892        C895   1.452       .  S
C893        N900   1.157       .  T
C894        N899   1.157       .  T
C895        N897   1.157       .  T
C896        N898   1.158       .  T
C901        C902   1.414       .  A
C901        C906   1.412   1_455  A
C902        C903   1.411   1_455  A
C902        C907   1.452       .  S
C903        C904   1.417       .  A
C903        C910   1.452   1_655  S
C904        C905   1.416       .  A
C905        C906   1.412       .  A
C905        C908   1.450       .  S
C906        C909   1.452       .  S
C907        N914   1.158       .  T
C908        N913   1.157       .  T
C909        N911   1.157       .  T
C910        N912   1.157       .  T
C915        C916   1.410       .  A
C915        C920   1.413       .  A
C916        C917   1.401       .  A
C916        C921   1.453       .  S
C917        C918   1.412       .  A
C917        C924   1.454       .  S
C918        C919   1.410       .  A
C919        C920   1.418       .  A
C919        C922   1.448       .  S
C920        C923   1.448       .  S
C921        N928   1.157       .  T
C922        N927   1.157       .  T
C923        N925   1.157       .  T
C924        N926   1.157       .  T
C929        C930   1.410       .  A
C929        C934   1.414       .  A
C930        C931   1.413       .  A
C930        C935   1.453       .  S
C931        C932   1.425       .  A
C931        C938   1.452       .  S
C932        C933   1.420       .  A
C933        C934   1.412       .  A
C933        C936   1.452   1_556  S
C934        C937   1.454       .  S
C935        N942   1.158       .  T
C936        N941   1.158       .  T
C937        N939   1.157       .  T
C938        N940   1.158       .  T
C943        C944   1.415   1_554  A
C943        C948   1.415       .  A
C944        C945   1.412       .  A
C944        C949   1.451       .  S
C945        C946   1.413       .  A
C945        C952   1.450       .  S
C946        C947   1.414   1_556  A
C947        C948   1.407       .  A
C947        C950   1.453       .  S
C948        C951   1.452       .  S
C949        N956   1.157       .  T
C950        N955   1.157       .  T
C951        N953   1.158       .  T
C952        N954   1.157       .  T
C957        C958   1.417       .  A
C957        C962   1.418       .  A
C958        C959   1.415       .  A
C958        C963   1.450       .  S
C959        C960   1.412       .  A
C959        C966   1.451       .  S
C960        C961   1.415       .  A
C961        C962   1.406       .  A
C961        C964   1.455       .  S
C962        C965   1.454       .  S
C963        N970   1.157       .  T
C964        N969   1.158       .  T
C965        N967   1.157       .  T
C966        N968   1.157       .  T
C971        C972   1.414       .  A
C971        C976   1.413       .  A
C972        C973   1.410       .  A
C972        C977   1.453       .  S
C973        C974   1.417       .  A
C973        C980   1.453       .  S
C974        C975   1.417       .  A
C975        C976   1.414       .  A
C975        C978   1.451       .  S
C976        C979   1.450       .  S
C977        N984   1.157       .  T
C978        N983   1.157       .  T
C979        N981   1.157       .  T
C980        N982   1.158       .  T
