geometry optimzed in LAMMPS
_audit_creation_date              2020-11-30 
_audit_creation_method            'lammps2cif' 
_symmetry_space_group_name_H-M    'P1' 
_symmetry_Int_Tables_number       1 
_symmetry_cell_setting            triclinic 
loop_ 
_symmetry_equiv_pos_as_xyz 
  x,y,z 
_cell_length_a                    51.69658474 
_cell_length_b                    51.743840284360715 
_cell_length_c                    51.66786022573398 
_cell_angle_alpha                 89.84587571247796 
_cell_angle_beta                  90.05120400664816 
_cell_angle_gamma                 89.91275764894034 
loop_ 
_atom_site_label 
_atom_site_type_symbol 
_atom_site_fract_x 
_atom_site_fract_y 
_atom_site_fract_z 
_atom_site_charge 
O1          O  0.25414897  0.58567861  0.53132394    -0.55600
C2          C  0.22816265  0.59565362  0.45894626     0.77000
O3          O  0.21933861  0.66189083  0.50548346    -0.56800
C4          C  0.26760475  0.59737797  0.54811445     0.77000
C5          C  0.29560205  0.64909647  0.48343890     0.79400
Cd6        Cd  0.24922537  0.62391555  0.50242633     1.37500
O7          O  0.24726400  0.58706205  0.47165857    -0.55600
O8          O  0.29078832  0.62544953  0.47993551    -0.54400
C9          C  0.20545090  0.65193545  0.52313676     0.79300
O10         O  0.27819043  0.66187943  0.49499863    -0.56800
O11         O  0.21875117  0.61687465  0.46654622    -0.55300
O12         O  0.27220388  0.62093261  0.54351687    -0.55200
O13         O  0.21214251  0.62966303  0.53076687    -0.54400
O14         O  0.76582239  0.92001189  0.47361646    -0.55600
C15         C  0.72808094  0.90645473  0.54148064     0.77000
O16         O  0.72341059  0.84262089  0.48930038    -0.56800
C17         C  0.77311043  0.90794791  0.45361542     0.77000
C18         C  0.79550111  0.85491294  0.51621787     0.79400
Cd19       Cd  0.75020422  0.88119873  0.49695137     1.37500
O20         O  0.73338168  0.91894400  0.52105749    -0.55600
O21         O  0.79154760  0.87877366  0.51975328    -0.54400
C22         C  0.70515675  0.85451523  0.47807366     0.79300
O23         O  0.77816310  0.84294671  0.50377496    -0.56800
O24         O  0.73332213  0.88257542  0.54115809    -0.55300
O25         O  0.76903988  0.88385870  0.45360128    -0.55200
O26         O  0.70814227  0.87861181  0.47522821    -0.54400
O27         O  0.98534485  0.72542434  0.66423859    -0.55600
C28         C  0.01604743  0.79581258  0.64870583     0.77000
O29         O  0.02236836  0.73239317  0.58730732    -0.56800
C30         C  0.97770422  0.70531966  0.65263549     0.77000
C31         C  0.95203145  0.77064713  0.59733213     0.79400
Cd32       Cd  0.99670539  0.74970892  0.62420864     1.37500
O33         O  0.00468571  0.77830997  0.66153693    -0.55600
O34         O  0.95327639  0.76853996  0.62165867    -0.54400
C35         C  0.04310622  0.72938599  0.60007181     0.79300
O36         O  0.97157551  0.76259983  0.58495731    -0.56800
O37         O  0.01829250  0.79185326  0.62465924    -0.55300
O38         O  0.97907547  0.70587612  0.62820085    -0.55200
O39         O  0.04205024  0.73554634  0.62373244    -0.54400
O40         O  0.52850929  0.74163023  0.91728571    -0.55600
C41         C  0.45784515  0.77381900  0.90079127     0.77000
O42         O  0.52000760  0.77848002  0.83769483    -0.56800
C43         C  0.55003721  0.73789130  0.90625830     0.77000
C44         C  0.48719080  0.70914125  0.85216596     0.79400
Cd45       Cd  0.50502846  0.75544527  0.87722140     1.37500
O46         O  0.47942131  0.77494627  0.91241011    -0.55600
O47         O  0.48585413  0.71224162  0.87639917    -0.54400
C48         C  0.52053908  0.80064647  0.84798387     0.79300
O49         O  0.49732158  0.72746292  0.83944561    -0.56800
O50         O  0.45820290  0.76412022  0.87833665    -0.55300
O51         O  0.55057624  0.74271127  0.88229415    -0.55200
O52         O  0.51380203  0.80175582  0.87147281    -0.54400
O53         O  0.65792312  0.01836232  0.76989284    -0.55600
C54         C  0.64346048  0.98592209  0.69860070     0.77000
O55         O  0.58100349  0.98072467  0.75783939    -0.56800
C56         C  0.64565341  0.02778325  0.78889045     0.77000
C57         C  0.59451477  0.05255741  0.72308273     0.79400
Cd58       Cd  0.61898736  0.00691644  0.74428974     1.37500
O59         O  0.65639154  0.99329471  0.71805147    -0.55600
O60         O  0.61876379  0.05031483  0.72551786    -0.54400
C61         C  0.59420181  0.96181296  0.76624038     0.79300
O62         O  0.58119544  0.03354960  0.73094838    -0.56800
O63         O  0.61918057  0.98840842  0.70030109    -0.55300
O64         O  0.62125044  0.02750873  0.78701880    -0.55200
O65         O  0.61846912  0.96406421  0.76440701    -0.54400
O66         O  0.72491383  0.66869732  0.00153237    -0.55600
C67         C  0.79882884  0.65669906  0.02570486     0.77000
O68         O  0.74010290  0.59124358  0.03548972    -0.56800
C69         C  0.70671101  0.65669079  0.99042180     0.77000
C70         C  0.77059580  0.60229227  0.96400162     0.79400
Cd71       Cd  0.75220665  0.62980382  0.00940343     1.37500
O72         O  0.79479268  0.63314177  0.03088921    -0.55600
O73         O  0.76791457  0.62655408  0.96466531    -0.54400
C74         C  0.73102106  0.60354209  0.05460056     0.79300
O75         O  0.76480317  0.59037999  0.98463415    -0.56800
O76         O  0.78098050  0.66806907  0.01336124    -0.55300
O77         O  0.70959853  0.63250370  0.98843743    -0.55200
O78         O  0.73227879  0.62791886  0.05298402    -0.54400
O79         O  0.87782745  0.45762355  0.77640593    -0.55600
C80         C  0.89936797  0.54744099  0.73774758     0.77000
O81         O  0.83622839  0.48829199  0.73420035    -0.56800
C82         C  0.90217439  0.45542139  0.77545340     0.77000
C83         C  0.84865604  0.52053747  0.80455496     0.79400
Cd84       Cd  0.87512008  0.50144461  0.75884591     1.37500
O85         O  0.87781426  0.53902706  0.72999096    -0.55600
O86         O  0.87221146  0.51401402  0.80473007    -0.54400
C87         C  0.84863988  0.48007269  0.71470109     0.79300
O88         O  0.83706721  0.51806712  0.78309214    -0.56800
O89         O  0.91021206  0.53450482  0.75556369    -0.55300
O90         O  0.91433559  0.47466291  0.76634096    -0.55200
O91         O  0.87304331  0.48140381  0.71614814    -0.54400
O92         O  0.57631486  0.47120443  0.23402424    -0.55600
C93         C  0.59059746  0.53997000  0.27201621     0.77000
O94         O  0.65528818  0.48440443  0.27448148    -0.56800
C95         C  0.58862874  0.45134650  0.22674135     0.77000
C96         C  0.64148142  0.51620189  0.20580575     0.79400
Cd97       Cd  0.61524257  0.49469827  0.25031159     1.37500
O98         O  0.57950896  0.51814457  0.27267463    -0.55600
O99         O  0.61733744  0.51864066  0.20916325    -0.54400
C100        C  0.64424928  0.47660868  0.29489403     0.79300
O101        O  0.65349549  0.50338073  0.22294817    -0.56800
O102        O  0.61256548  0.54055441  0.26131691    -0.55300
O103        O  0.61268770  0.45156155  0.23100568    -0.55200
O104        O  0.61978796  0.47679877  0.29451628    -0.54400
O105        O  0.48178849  0.22215762  0.15652305    -0.55600
C106        C  0.51251136  0.29223266  0.14449190     0.77000
O107        O  0.54328109  0.22981790  0.12056414    -0.56800
C108        C  0.47832574  0.20075770  0.14522344     0.77000
C109        C  0.45517390  0.26063862  0.08708109     0.79400
Cd110      Cd  0.49849393  0.24517953  0.11828775     1.37500
O111        O  0.51296363  0.27055290  0.15583950    -0.55600
O112        O  0.45306513  0.25523194  0.11088744    -0.54400
C113        C  0.54679217  0.22809917  0.09644027     0.79300
O114        O  0.47749196  0.25815050  0.07728333    -0.56800
O115        O  0.50495960  0.29216904  0.12123422    -0.55300
O116        O  0.48414987  0.20008034  0.12144450    -0.55200
O117        O  0.52775869  0.23426879  0.08228774    -0.54400
O118        O  0.41440161  0.97242704  0.26753942    -0.55600
C119        C  0.40239443  0.04434939  0.23326832     0.77000
O120        O  0.33968555  0.99078421  0.22394808    -0.56800
C121        C  0.40099973  0.95348333  0.27541595     0.77000
C122        C  0.34998247  0.01824542  0.29784375     0.79400
Cd123      Cd  0.37688853  0.99881965  0.25312771     1.37500
O124        O  0.41535793  0.02477484  0.24043782    -0.55600
O125        O  0.37411032  0.02088841  0.29477339    -0.54400
C126        C  0.35288552  0.98010260  0.20631159     0.79300
O127        O  0.33806711  0.00658074  0.27991102    -0.56800
O128        O  0.37813064  0.04262626  0.23574063    -0.55300
O129        O  0.37679101  0.95573289  0.27275063    -0.55200
O130        O  0.37688328  0.97808891  0.21063953    -0.54400
O131        O  0.47872580  0.78956717  0.37986840    -0.55600
C132        C  0.52135423  0.70247165  0.35482918     0.77000
O133        O  0.52800798  0.75995081  0.41858145    -0.56800
C134        C  0.47995466  0.79341426  0.35573529     0.77000
C135        C  0.45750769  0.72707613  0.40787618     0.79400
Cd136      Cd  0.50146087  0.74804125  0.38070936     1.37500
O137        O  0.50835550  0.71946926  0.34281621    -0.55600
O138        O  0.45921173  0.72756940  0.38347036    -0.54400
C139        C  0.54646609  0.76920238  0.40540406     0.79300
O140        O  0.47647371  0.73649397  0.42016488    -0.56800
O141        O  0.52526983  0.70678928  0.37859193    -0.55300
O142        O  0.49149072  0.77613621  0.34277674    -0.55200
O143        O  0.54381493  0.76862182  0.38107157    -0.54400
O144        O  0.75995708  0.09090182  0.02248692    -0.55600
C145        C  0.73051789  0.10470585  0.94776300     0.77000
O146        O  0.72567107  0.16669917  0.00550913    -0.56800
C147        C  0.77077820  0.10373352  0.04035206     0.77000
C148        C  0.79679653  0.15550942  0.97352246     0.79400
Cd149      Cd  0.75213071  0.12875051  0.99370472     1.37500
O150        O  0.74451098  0.09196229  0.96342444    -0.55600
O151        O  0.79521920  0.13111081  0.97407625    -0.54400
C152        C  0.70824298  0.15370743  0.01683102     0.79300
O153        O  0.77751876  0.16772927  0.98240318    -0.56800
O154        O  0.72664534  0.12810015  0.95361368    -0.55300
O155        O  0.77364997  0.12760096  0.03597263    -0.55200
O156        O  0.71113699  0.12943615  0.01679401    -0.61600
O157        O  0.99799259  0.27993190  0.83993410    -0.55600
C158        C  0.02212883  0.20483773  0.85075252     0.77000
O159        O  0.03285126  0.26393162  0.91586922    -0.56800
C160        C  0.98856666  0.29830932  0.85311578     0.77000
C161        C  0.95956920  0.23498213  0.90228673     0.79400
Cd162      Cd  0.00676095  0.25161135  0.87757100     1.37500
O163        O  0.02481507  0.20759970  0.87492049    -0.55600
O164        O  0.96077789  0.24146121  0.87873740    -0.54400
C165        C  0.05240304  0.27142028  0.90313638     0.79300
O166        O  0.98059660  0.23616603  0.91487267    -0.56800
O167        O  0.01250810  0.22396461  0.83879236    -0.55300
O168        O  0.98843238  0.29511709  0.87739348    -0.55200
O169        O  0.05092919  0.26912322  0.87880171    -0.54400
O170        O  0.22707670  0.84202237  0.01469592    -0.55600
C171        C  0.29639188  0.85247629  0.97655652     0.77000
O172        O  0.24322356  0.91676259  0.97139021    -0.56800
C173        C  0.20720412  0.85521971  0.02033369     0.77000
C174        C  0.27488798  0.90475531  0.04411014     0.79400
Cd175      Cd  0.25292835  0.87923171  0.99940280     1.37500
O176        O  0.29297750  0.87656717  0.97417715    -0.55600
O177        O  0.27441217  0.88049989  0.04150737    -0.54400
C178        C  0.23043049  0.90403384  0.95481110     0.79300
O179        O  0.26506883  0.91768902  0.02570983    -0.56800
O180        O  0.27934398  0.84044601  0.98938274    -0.55300
O181        O  0.20879097  0.87931783  0.01655224    -0.55200
O182        O  0.22849392  0.87997621  0.95885286    -0.54400
O183        O  0.08285033  0.02431760  0.76293188    -0.55600
C184        C  0.09527864  0.95369325  0.72981596     0.77000
O185        O  0.15976214  0.00675110  0.72199926    -0.56800
C186        C  0.09494693  0.04522254  0.76675394     0.77000
C187        C  0.14634922  0.98156990  0.79596229     0.79400
Cd188      Cd  0.12106339  0.99904530  0.74915209     1.37500
O189        O  0.08280979  0.97393014  0.73565935    -0.55600
O190        O  0.12211454  0.98046562  0.79287165    -0.54400
C191        C  0.14736874  0.01590242  0.70289126     0.79300
O192        O  0.15907878  0.99095794  0.77724876    -0.56800
O193        O  0.11949191  0.95453194  0.73318374    -0.55300
O194        O  0.11898580  0.04468134  0.76223795    -0.55200
O195        O  0.12304565  0.01688299  0.70533422    -0.54400
O196        O  0.83995616  0.99169282  0.27470378    -0.55600
C197        C  0.84594955  0.02701348  0.20354291     0.77000
O198        O  0.91312273  0.03857091  0.25833877    -0.56800
C199        C  0.85204647  0.99178828  0.29604828     0.77000
C200        C  0.90317572  0.96497049  0.23286977     0.79400
Cd201      Cd  0.87515036  0.01080512  0.24885078     1.37500
O202        O  0.83600927  0.02750286  0.22592023    -0.55600
O203        O  0.87959079  0.96455166  0.23934060    -0.54400
C204        C  0.89997250  0.05809523  0.26515508     0.79300
O205        O  0.91417622  0.98682752  0.23402280    -0.56800
O206        O  0.86887481  0.01858028  0.20232038    -0.55300
O207        O  0.87457439  0.00126464  0.29557295    -0.55200
O208        O  0.87568842  0.05570167  0.26366319    -0.54400
O209        O  0.02578401  0.77555903  0.09016784    -0.55600
C210        C  0.95809977  0.74046451  0.09969372     0.77000
O211        O  0.01884640  0.73477290  0.16724465    -0.56800
C212        C  0.04725218  0.77824656  0.10158824     0.77000
C213        C  0.98277652  0.80464101  0.15485060     0.79400
Cd214      Cd  0.00213819  0.75899347  0.12862998     1.37500
O215        O  0.98092821  0.73868906  0.09103139    -0.55600
O216        O  0.98629522  0.80370588  0.13065936    -0.54400
C217        C  0.01901088  0.71288524  0.15633281     0.79300
O218        O  0.98827285  0.78419050  0.16727219    -0.56800
O219        O  0.95565902  0.75090168  0.12169909    -0.55300
O220        O  0.04773768  0.77150220  0.12510026    -0.55200
O221        O  0.01083563  0.71251868  0.13328076    -0.54400
O222        O  0.15919196  0.50307359  0.28263432    -0.55600
C223        C  0.14843898  0.48485132  0.20359244     0.77000
O224        O  0.08247040  0.48166165  0.26312411    -0.56800
C225        C  0.15085586  0.52203804  0.29562128     0.77000
C226        C  0.09862175  0.55006668  0.23014494     0.79400
Cd227      Cd  0.12330511  0.50396406  0.25003484     1.37500
O228        O  0.16103231  0.49615878  0.22128481    -0.55600
O229        O  0.12273904  0.54625090  0.22826732    -0.54400
C230        C  0.09355961  0.46095627  0.27016026     0.79300
O231        O  0.08577396  0.53220828  0.24098270    -0.56800
O232        O  0.12441405  0.48247956  0.20752614    -0.55300
O233        O  0.13025812  0.53237033  0.28743756    -0.55200
O234        O  0.11787402  0.46050519  0.26775072    -0.54400
O235        O  0.34276351  0.51599011  0.72602692    -0.55600
C236        C  0.35526446  0.48783221  0.79627810     0.77000
O237        O  0.42019710  0.48093103  0.73580226    -0.56800
C238        C  0.35424413  0.52221214  0.70531396     0.77000
C239        C  0.40833730  0.55169805  0.76958710     0.79400
Cd240      Cd  0.38215368  0.50610076  0.75085416     1.37500
O241        O  0.34343078  0.49833367  0.77757520    -0.55600
O242        O  0.38477095  0.55169389  0.76308857    -0.54400
C243        C  0.40734473  0.46087514  0.73020847     0.79300
O244        O  0.42021325  0.53046160  0.76693731    -0.56800
O245        O  0.37954519  0.48592013  0.79389246    -0.55300
O246        O  0.37870960  0.52129196  0.70589471    -0.55200
O247        O  0.38333505  0.46195467  0.73468431    -0.54400
O248        O  0.24335597  0.42118653  0.02658393    -0.55600
C249        C  0.27287513  0.41077664  0.95496716     0.77000
O250        O  0.28275924  0.34340595  0.00143679    -0.56800
C251        C  0.23357718  0.40825417  0.04497259     0.77000
C252        C  0.20898623  0.35776606  0.98116410     0.79400
Cd253      Cd  0.25515465  0.38271540  0.99994587     1.37500
O254        O  0.27191846  0.42141342  0.97700709    -0.55600
O255        O  0.21426359  0.38107685  0.97598632    -0.54400
C256        C  0.30067827  0.35310892  0.01493228     0.79300
O257        O  0.22506977  0.34589940  0.99540735    -0.56800
O258        O  0.26592184  0.38738771  0.95409820    -0.55300
O259        O  0.23434572  0.38397873  0.04244482    -0.55200
O260        O  0.29744364  0.37641291  0.02149592    -0.54400
O261        O  0.27172200  0.16167120  0.52130930    -0.55600
C262        C  0.20502136  0.15253707  0.48119369     0.77000
O263        O  0.27085716  0.08740536  0.47922839    -0.56800
C264        C  0.29451951  0.15404196  0.51679337     0.77000
C265        C  0.23120039  0.09707693  0.54630939     0.79400
Cd266      Cd  0.24948779  0.12445452  0.50075106     1.37500
O267        O  0.22728016  0.16268901  0.48206880    -0.55600
O268        O  0.23433885  0.12126921  0.54562945    -0.54400
C269        C  0.26652323  0.09504347  0.45631160     0.79300
O270        O  0.23707551  0.08505258  0.52583421    -0.56800
O271        O  0.20353184  0.12948041  0.48929991    -0.55300
O272        O  0.29637215  0.13297539  0.50464520    -0.55200
O273        O  0.25368744  0.11577753  0.45412045    -0.54400
O274        O  0.02548683  0.24028162  0.41655363    -0.55600
C275        C  0.95571210  0.27671350  0.40826078     0.77000
O276        O  0.00579178  0.28587984  0.34204577    -0.56800
C277        C  0.04618097  0.23699629  0.40388432     0.77000
C278        C  0.97929166  0.21306060  0.35240297     0.79400
Cd279      Cd  0.99957757  0.25712818  0.37997032     1.37500
O280        O  0.97740064  0.27337473  0.41915956    -0.55600
O281        O  0.98116929  0.21336717  0.37682836    -0.54400
C282        C  0.01528244  0.30446164  0.35479520     0.79300
O283        O  0.98745397  0.23295141  0.34065764    -0.56800
O284        O  0.95441600  0.27019957  0.38475331    -0.55300
O285        O  0.04513348  0.24278820  0.38008565    -0.55200
O286        O  0.01761226  0.30084038  0.37888394    -0.54400
O287        O  0.77956674  0.34993625  0.49361173    -0.55600
C288        C  0.70630172  0.36262859  0.51797622     0.77000
O289        O  0.76754124  0.42578765  0.52881595    -0.56800
C290        C  0.79997649  0.36218898  0.48794995     0.77000
C291        C  0.73553543  0.41198548  0.45487307     0.79400
Cd292      Cd  0.75301196  0.38841458  0.50251575     1.37500
O293        O  0.72620011  0.35007288  0.51112504    -0.55600
O294        O  0.73932957  0.38798976  0.45736031    -0.54400
C295        C  0.76834295  0.41330755  0.54996085     0.79300
O296        O  0.74039476  0.42563210  0.47462661    -0.56800
O297        O  0.70820429  0.38701440  0.51759254    -0.55300
O298        O  0.79864693  0.38653929  0.48956348    -0.55200
O299        O  0.76171362  0.38982824  0.54890373    -0.54400
O300        O  0.47371790  0.24618303  0.57573324    -0.55600
C301        C  0.54583956  0.27797617  0.58790435     0.77000
O302        O  0.48678866  0.28271450  0.65327969    -0.56800
C303        C  0.45406788  0.23980825  0.58891718     0.77000
C304        C  0.51966529  0.21234232  0.63861776     0.79400
Cd305      Cd  0.50029333  0.25878762  0.61390474     1.37500
O306        O  0.52447888  0.27584353  0.57607917    -0.55600
O307        O  0.51516498  0.21343868  0.61455708    -0.54400
C308        C  0.48202852  0.30384858  0.64180927     0.79300
O309        O  0.51513928  0.23281736  0.65123600    -0.56800
O310        O  0.54590983  0.27088049  0.61134436    -0.55300
O311        O  0.45598564  0.24271984  0.61312075    -0.55200
O312        O  0.48603192  0.30403602  0.61767481    -0.54400
C313        C  0.64068591  0.35084633  0.54850717     0.14900
C314        C  0.63666089  0.32468770  0.54286286     0.01800
C315        C  0.65523478  0.31102538  0.52863669     0.16800
C316        C  0.67784414  0.32334493  0.52033370     0.26200
C317        C  0.68215118  0.34959929  0.52616692    -0.40100
C318        C  0.66319405  0.36326109  0.54020666     0.33300
C319        C  0.61378975  0.31135351  0.55332748     0.01900
F320        F  0.65156079  0.28566550  0.52307516    -0.12400
F321        F  0.66671560  0.38844487  0.54661844    -0.13000
C322        C  0.59029119  0.31150254  0.53977577     0.16800
C323        C  0.56824463  0.30012897  0.55064607     0.26200
C324        C  0.56942143  0.28857072  0.57540242    -0.40100
C325        C  0.59334046  0.28806397  0.58858709     0.33200
C326        C  0.61526730  0.29936283  0.57760542     0.14900
F327        F  0.58864617  0.32304621  0.51619821    -0.12400
F328        F  0.59560046  0.27685267  0.61227392    -0.12900
F329        F  0.54570080  0.30100940  0.53718076    -0.15200
F330        F  0.63794308  0.29905881  0.59089213    -0.13800
F331        F  0.62301122  0.36419637  0.56259690    -0.13800
F332        F  0.69541438  0.30958128  0.50652361    -0.15200
C333        C  0.88788782  0.30114034  0.42178965     0.14900
C334        C  0.89065168  0.31174339  0.44660257     0.01800
C335        C  0.91476040  0.31044969  0.45906431     0.16800
C336        C  0.93585429  0.29866051  0.44687539     0.26200
C337        C  0.93318877  0.28808285  0.42188526    -0.40100
C338        C  0.90887240  0.28939135  0.40954921     0.33300
C339        C  0.86825863  0.32425053  0.45921118     0.01900
F340        F  0.91781206  0.32045942  0.48313741    -0.12400
F341        F  0.90528694  0.27945513  0.38551518    -0.13000
C342        C  0.84562112  0.31006366  0.46389926     0.16800
C343        C  0.82363614  0.32220346  0.47385358     0.26200
C344        C  0.82387776  0.34888257  0.47930947    -0.40100
C345        C  0.84694749  0.36287975  0.47533943     0.33200
C346        C  0.86890743  0.35064568  0.46535765     0.14900
F347        F  0.84475406  0.28439958  0.45854110    -0.12400
F348        F  0.84823751  0.38852531  0.48068371    -0.12900
F349        F  0.80195033  0.30787863  0.47745561    -0.15200
F350        F  0.89052685  0.36480544  0.46076535    -0.13800
F351        F  0.86489849  0.30269531  0.40912885    -0.13800
F352        F  0.95891707  0.29796225  0.45944617    -0.15200
C353        C  0.36462406  0.17353633  0.52758437     0.14900
C354        C  0.36192142  0.19518069  0.54365312     0.01800
C355        C  0.33702568  0.20382924  0.55021718     0.16800
C356        C  0.31511117  0.19077156  0.54120241     0.26200
C357        C  0.31769344  0.16868719  0.52545380    -0.40100
C358        C  0.34278194  0.16037331  0.51858390     0.33300
C359        C  0.38507641  0.20760892  0.55498636     0.01900
F360        F  0.33397308  0.22487908  0.56556014    -0.12400
F361        F  0.34632337  0.13924542  0.50346696    -0.13000
C362        C  0.40360495  0.21967630  0.53918425     0.16800
C363        C  0.42598886  0.23039642  0.55008687     0.26200
C364        C  0.43019833  0.22916010  0.57703607    -0.40100
C365        C  0.41138732  0.21717837  0.59274728     0.33200
C366        C  0.38911317  0.20655674  0.58181226     0.14900
F367        F  0.39989085  0.22122632  0.51320779    -0.12400
F368        F  0.41476928  0.21505890  0.61873097    -0.12900
F369        F  0.44338817  0.24208790  0.53426789    -0.15200
F370        F  0.37176155  0.19449118  0.59740955    -0.13800
F371        F  0.38851774  0.16456409  0.52136935    -0.13800
F372        F  0.29141657  0.19952385  0.54838671    -0.15200
C373        C  0.13558323  0.16837352  0.46259892     0.14900
C374        C  0.13822110  0.19267673  0.45071470     0.01800
C375        C  0.16284673  0.20407613  0.44941838     0.16800
C376        C  0.18453036  0.19122902  0.45949276     0.26200
C377        C  0.18199906  0.16665668  0.47112707    -0.40100
C378        C  0.15716008  0.15553453  0.47275675     0.33300
C379        C  0.11530824  0.20562676  0.43910172     0.01900
F380        F  0.16588086  0.22778806  0.43852236    -0.12400
F381        F  0.15360603  0.13210778  0.48409777    -0.13000
C382        C  0.09333797  0.21087891  0.45420013     0.16800
C383        C  0.07102956  0.22134493  0.44289302     0.26200
C384        C  0.07021272  0.22682516  0.41613945    -0.40100
C385        C  0.09258459  0.22221460  0.40121059     0.33200
C386        C  0.11484242  0.21170261  0.41258387     0.14900
F387        F  0.09350208  0.20587476  0.48001448    -0.12400
F388        F  0.09291039  0.22742838  0.37544420    -0.12900
F389        F  0.05022152  0.22595272  0.45822134    -0.15200
F390        F  0.13570114  0.20663383  0.39746118    -0.13800
F391        F  0.11210295  0.15670147  0.46377735    -0.13800
F392        F  0.20800290  0.20279971  0.45755889    -0.15200
C393        C  0.45665367  0.41521650  0.70024300     0.14900
C394        C  0.44125776  0.39358691  0.69477433     0.01800
C395        C  0.41501499  0.39384520  0.70152710     0.16800
C396        C  0.40413157  0.41554878  0.71331259     0.26200
C397        C  0.41937646  0.43750086  0.71868969    -0.40100
C398        C  0.44588420  0.43696922  0.71222715     0.33300
C399        C  0.45234922  0.37086599  0.68152452     0.01900
F400        F  0.39974678  0.37322039  0.69612324    -0.12400
F401        F  0.46138918  0.45751947  0.71722074    -0.13000
C402        C  0.45551566  0.34741046  0.69483115     0.16800
C403        C  0.46546966  0.32570481  0.68211307     0.26200
C404        C  0.47212999  0.32701553  0.65565589    -0.40100
C405        C  0.46875174  0.35068933  0.64240628     0.33200
C406        C  0.45904676  0.37238103  0.65528262     0.14900
F407        F  0.44895664  0.34558180  0.72021287    -0.12400
F408        F  0.47465298  0.35293883  0.61690084    -0.12900
F409        F  0.46825888  0.30338232  0.69569922    -0.15200
F410        F  0.45557918  0.39478377  0.64196329    -0.13800
F411        F  0.48216224  0.41519521  0.69400636    -0.13800
F412        F  0.37854042  0.41504717  0.71918199    -0.15200
C413        C  0.30148791  0.46773103  0.84221729     0.14900
C414        C  0.31564026  0.45951757  0.86394015     0.01800
C415        C  0.34275290  0.46072362  0.86340757     0.16800
C416        C  0.35560207  0.46999474  0.84151349     0.26200
C417        C  0.34154791  0.47826252  0.81961238    -0.40100
C418        C  0.31428422  0.47704551  0.82023472     0.33300
C419        C  0.30242323  0.44861005  0.88686252     0.01900
F420        F  0.35685185  0.45224001  0.88393589    -0.12400
F421        F  0.29994164  0.48445896  0.79947024    -0.13000
C422        C  0.28812757  0.42569666  0.88468106     0.16800
C423        C  0.27793901  0.41378749  0.90672863     0.26200
C424        C  0.28190382  0.42459013  0.93145972    -0.40100
C425        C  0.29529682  0.44820724  0.93341106     0.33200
C426        C  0.30550445  0.46004676  0.91129119     0.14900
F427        F  0.28493572  0.41426187  0.86126842    -0.12400
F428        F  0.29928679  0.45948032  0.95676755    -0.12900
F429        F  0.26444542  0.39148997  0.90379780    -0.15200
F430        F  0.31876097  0.48254700  0.91372818    -0.13800
F431        F  0.27523805  0.46678555  0.84233488    -0.13800
F432        F  0.38185246  0.47076278  0.84184386    -0.15200
C433        C  0.20838084  0.45886155  0.09227512     0.14900
C434        C  0.19766124  0.44322552  0.11177109     0.01800
C435        C  0.19909142  0.41626646  0.10938816     0.16800
C436        C  0.21099141  0.40502119  0.08790439     0.26200
C437        C  0.22161545  0.42053715  0.06809073    -0.40100
C438        C  0.22017756  0.44766416  0.07056946     0.33300
C439        C  0.18491589  0.45483455  0.13467244     0.01900
F440        F  0.18917097  0.40074014  0.12812791    -0.12400
F441        F  0.22995189  0.46343037  0.05195816    -0.13000
C442        C  0.15850148  0.45056866  0.13926418     0.16800
C443        C  0.14660124  0.46053209  0.16142914     0.26200
C444        C  0.16098089  0.47483183  0.17967939    -0.40100
C445        C  0.18748118  0.47921762  0.17484463     0.33200
C446        C  0.19926151  0.46936989  0.15252247     0.14900
F447        F  0.14417947  0.43674213  0.12216445    -0.12400
F448        F  0.20213895  0.49290813  0.19174642    -0.12900
F449        F  0.12101225  0.45588755  0.16504121    -0.15200
F450        F  0.22491197  0.47343298  0.14866278    -0.13800
F451        F  0.20693822  0.48500153  0.09403373    -0.13800
F452        F  0.21201898  0.37883759  0.08660769    -0.15200
C453        C  0.04091757  0.41980777  0.30119327     0.14900
C454        C  0.05400721  0.39627083  0.30459186     0.01800
C455        C  0.07941567  0.39367109  0.29560253     0.16800
C456        C  0.09193162  0.41447689  0.28382341     0.26200
C457        C  0.07928277  0.43849439  0.28096566    -0.40100
C458        C  0.05341607  0.44080438  0.28939292     0.33300
C459        C  0.04173241  0.37434066  0.31807525     0.01900
F460        F  0.09219912  0.37088929  0.29844951    -0.12400
F461        F  0.04041565  0.46348845  0.28686445    -0.13000
C462        C  0.02572429  0.35721018  0.30452905     0.16800
C463        C  0.01667396  0.33467551  0.31652687     0.26200
C464        C  0.02354215  0.32897209  0.34235049    -0.40100
C465        C  0.03891011  0.34679510  0.35609291     0.33200
C466        C  0.04800267  0.36918086  0.34397778     0.14900
F467        F  0.01955110  0.36194622  0.27941462    -0.12400
F468        F  0.04590577  0.34224383  0.38103321    -0.12900
F469        F  0.00139934  0.31839560  0.30276473    -0.15200
F470        F  0.06352637  0.38557129  0.35733902    -0.13800
F471        F  0.01627789  0.42257783  0.30983900    -0.13800
F472        F  0.11649311  0.41099722  0.27521575    -0.15200
C473        C  0.08968491  0.61720225  0.20114994     0.14900
C474        C  0.06269573  0.62006705  0.20184405     0.01800
C475        C  0.04750683  0.59990772  0.21181575     0.16800
C476        C  0.05910602  0.57720917  0.22104800     0.26200
C477        C  0.08621508  0.57415309  0.22033965    -0.40100
C478        C  0.10137033  0.59450186  0.21025312     0.33300
C479        C  0.05036076  0.64370951  0.19125407     0.01900
F480        F  0.02136905  0.60230107  0.21273443    -0.12400
F481        F  0.12753725  0.59253253  0.20910188    -0.13000
C482        C  0.03507757  0.64224413  0.16886692     0.16800
C483        C  0.02438899  0.66460830  0.15795804     0.26200
C484        C  0.02873079  0.68901877  0.16926191    -0.40100
C485        C  0.04349929  0.69030591  0.19220707     0.33200
C486        C  0.05430398  0.66783937  0.20299452     0.14900
F487        F  0.03113636  0.61914601  0.15710197    -0.12400
F488        F  0.04810854  0.71332197  0.20386824    -0.12900
F489        F  0.00992244  0.66227438  0.13614547    -0.15200
F490        F  0.06870968  0.66961294  0.22490722    -0.13800
F491        F  0.10471907  0.63622168  0.19106691    -0.13800
F492        F  0.04368165  0.55819968  0.23051688    -0.15200
C493        C  0.94998214  0.10543721  0.29071560     0.14900
C494        C  0.93433890  0.12626960  0.29826314     0.01800
C495        C  0.90765921  0.12537053  0.29348885     0.16800
C496        C  0.89658058  0.10354791  0.28205379     0.26200
C497        C  0.91207613  0.08215470  0.27511096    -0.40100
C498        C  0.93902555  0.08362127  0.27910959     0.33300
C499        C  0.94576295  0.14852216  0.31200057     0.01900
F500        F  0.89219800  0.14532270  0.30071533    -0.12400
F501        F  0.95480433  0.06377073  0.27233700    -0.13000
C502        C  0.94754707  0.17273995  0.29987599     0.16800
C503        C  0.95866909  0.19367578  0.31287745     0.26200
C504        C  0.96791910  0.19078411  0.33841333    -0.40100
C505        C  0.96568717  0.16648335  0.35060902     0.33200
C506        C  0.95482440  0.14554690  0.33744106     0.14900
F507        F  0.93865351  0.17603281  0.27535228    -0.12400
F508        F  0.97425134  0.16282948  0.37519969    -0.12900
F509        F  0.95987321  0.21688418  0.30062096    -0.15200
F510        F  0.95280094  0.12236362  0.34964840    -0.13800
F511        F  0.97591554  0.10619082  0.29481547    -0.13800
F512        F  0.87058572  0.10327054  0.27828013    -0.15200
C513        C  0.95308323  0.92048748  0.20204068     0.14900
C514        C  0.94080435  0.89635469  0.20387814     0.01800
C515        C  0.91680879  0.89462977  0.21642601     0.16800
C516        C  0.90486950  0.91678849  0.22633823     0.26200
C517        C  0.91677740  0.94122171  0.22397307    -0.40100
C518        C  0.94129346  0.94269758  0.21210989     0.33300
C519        C  0.95235947  0.87318242  0.19160922     0.01900
F520        F  0.90448893  0.87154007  0.21829039    -0.12400
F521        F  0.95364655  0.96570106  0.20961393    -0.13000
C522        C  0.96030450  0.85195518  0.20664888     0.16800
C523        C  0.97044159  0.82977689  0.19483867     0.26200
C524        C  0.97263165  0.82833943  0.16766015    -0.40100
C525        C  0.96473585  0.84984028  0.15270813     0.33200
C526        C  0.95474287  0.87196897  0.16459293     0.14900
F527        F  0.95839021  0.85280529  0.23283756    -0.12400
F528        F  0.96627566  0.84944414  0.12648008    -0.12900
F529        F  0.97811403  0.80977553  0.21008495    -0.15200
F530        F  0.94670594  0.89204957  0.14961992    -0.13800
F531        F  0.97647875  0.92253904  0.19029986    -0.13800
F532        F  0.88148427  0.91425263  0.23800762    -0.15200
C533        C  0.15897098  0.05022317  0.63900476     0.14900
C534        C  0.18562368  0.04647250  0.63535811     0.01800
C535        C  0.19951366  0.03145329  0.65331925     0.16800
C536        C  0.18705796  0.02100374  0.67503301     0.26200
C537        C  0.16045510  0.02546076  0.67916441    -0.40100
C538        C  0.14650266  0.03987901  0.66062735     0.33300
C539        C  0.19882218  0.05920148  0.61329874     0.01900
F540        F  0.22531417  0.02759818  0.65027664    -0.12400
F541        F  0.12083365  0.04458928  0.66362415    -0.13000
C542        C  0.19778936  0.08620391  0.61076523     0.16800
C543        C  0.20857966  0.09843717  0.58921669     0.26200
C544        C  0.22078057  0.08390693  0.56965751    -0.40100
C545        C  0.22233346  0.05683285  0.57253433     0.33200
C546        C  0.21150299  0.04461819  0.59422291     0.14900
F547        F  0.18615492  0.10079224  0.62922767    -0.12400
F548        F  0.23424897  0.04212406  0.55437224    -0.12900
F549        F  0.20639465  0.12452365  0.58726102    -0.15200
F550        F  0.21273597  0.01847669  0.59622939    -0.13800
F551        F  0.14497504  0.06412790  0.62158985    -0.13800
F552        F  0.20112030  0.00670045  0.69205378    -0.15200
C553        C  0.13697505  0.84530393  0.03913006     0.14900
C554        C  0.13799625  0.82126811  0.05180379     0.01800
C555        C  0.16177260  0.80812629  0.05348187     0.16800
C556        C  0.18423588  0.81900621  0.04308762     0.26200
C557        C  0.18335654  0.84327858  0.03076508    -0.40100
C558        C  0.15942552  0.85622633  0.02872369     0.33300
C559        C  0.11459826  0.81032273  0.06424931     0.01900
F560        F  0.16323064  0.78468141  0.06527027    -0.12400
F561        F  0.15766262  0.87943474  0.01651226    -0.13000
C562        C  0.09196713  0.80571072  0.04988716     0.16800
C563        C  0.07006367  0.79518083  0.06187051     0.26200
C564        C  0.07044372  0.78898684  0.08848069    -0.40100
C565        C  0.09320987  0.79370969  0.10273689     0.33200
C566        C  0.11491481  0.80440111  0.09077819     0.14900
F567        F  0.09119841  0.81104676  0.02414934    -0.12400
F568        F  0.09452174  0.78829973  0.12843056    -0.12900
F569        F  0.04859170  0.79098045  0.04733209    -0.15200
F570        F  0.13619127  0.80948924  0.10532172    -0.13800
F571        F  0.11434988  0.85857249  0.03744158    -0.13800
F572        F  0.20695078  0.80606001  0.04574982    -0.15200
C573        C  0.19776433  0.95960203  0.84391334     0.14900
C574        C  0.18265086  0.95204628  0.86523452     0.01800
C575        C  0.15567571  0.95524312  0.86403478     0.16800
C576        C  0.14392845  0.96498632  0.84166061     0.26200
C577        C  0.15896685  0.97214480  0.82004743    -0.40100
C578        C  0.18608520  0.96968918  0.82160834     0.33300
C579        C  0.19485046  0.93998683  0.88833585     0.01900
F580        F  0.14063535  0.94901231  0.88466003    -0.12400
F581        F  0.20137237  0.97641766  0.80133692    -0.13000
C582        C  0.21486659  0.95258600  0.90172893     0.16800
C583        C  0.22648802  0.94093619  0.92329918     0.26200
C584        C  0.21823025  0.91647919  0.93197413    -0.40100
C585        C  0.19809542  0.90395854  0.91857827     0.33200
C586        C  0.18661477  0.91555711  0.89696746     0.14900
F587        F  0.22296712  0.97636671  0.89412077    -0.12400
F588        F  0.18918958  0.88057794  0.92654541    -0.12900
F589        F  0.24611090  0.95345255  0.93540869    -0.15200
F590        F  0.16766364  0.90266652  0.88417677    -0.13800
F591        F  0.22383733  0.95642053  0.84433067    -0.13800
F592        F  0.11776992  0.96737592  0.84126983    -0.15200
C593        C  0.09563759  0.30441960  0.95257908     0.14900
C594        C  0.11878704  0.30711543  0.93865241     0.01800
C595        C  0.12038653  0.29716075  0.91346278     0.16800
C596        C  0.09902757  0.28506455  0.90213836     0.26200
C597        C  0.07554339  0.28275590  0.91580644    -0.40100
C598        C  0.07419712  0.29232773  0.94130269     0.33300
C599        C  0.14127725  0.32051104  0.95019478     0.01900
F600        F  0.14279591  0.29900038  0.89988909    -0.12400
F601        F  0.05191802  0.29073254  0.95509920    -0.13000
C602        C  0.15392785  0.31009510  0.97190777     0.16800
C603        C  0.17590145  0.32218331  0.98207916     0.26200
C604        C  0.18542610  0.34512065  0.97084745    -0.40100
C605        C  0.17233253  0.35576245  0.94936633     0.33200
C606        C  0.15054698  0.34349749  0.93910737     0.14900
F607        F  0.14528676  0.28788092  0.98292310    -0.12400
F608        F  0.18091242  0.37775054  0.93783883    -0.12900
F609        F  0.18770866  0.31149883  0.00301751    -0.15200
F610        F  0.13838859  0.35413014  0.91833548    -0.13800
F611        F  0.09358270  0.31418946  0.97685651    -0.13800
F612        F  0.10147253  0.27543843  0.87784103    -0.15200
C613        C  0.04581456  0.08947161  0.79875778     0.14900
C614        C  0.05868787  0.11328985  0.79801297     0.01800
C615        C  0.08281897  0.11506130  0.78576872     0.16800
C616        C  0.09441098  0.09306538  0.77513973     0.26200
C617        C  0.08190311  0.06888246  0.77642248    -0.40100
C618        C  0.05720245  0.06746032  0.78790506     0.33300
C619        C  0.04782818  0.13596511  0.81149358     0.01900
F620        F  0.09547195  0.13802065  0.78475892    -0.12400
F621        F  0.04438908  0.04462823  0.78945626    -0.13000
C622        C  0.05102076  0.13838988  0.83831305     0.16800
C623        C  0.04223184  0.16047890  0.85115252     0.26200
C624        C  0.03010673  0.18070481  0.83730101    -0.40100
C625        C  0.02615109  0.17769154  0.81043122     0.33200
C626        C  0.03506319  0.15554000  0.79766550     0.14900
F627        F  0.06319095  0.11950283  0.85199691    -0.12400
F628        F  0.01375034  0.19616079  0.79640864    -0.12900
F629        F  0.04594746  0.16209377  0.87711261    -0.15200
F630        F  0.03133153  0.15319681  0.77176478    -0.13800
F631        F  0.02238176  0.08748476  0.81042730    -0.13800
F632        F  0.11795462  0.09547679  0.76376001    -0.15200
C633        C  0.80044261  0.09552570  0.10732468     0.14900
C634        C  0.79685446  0.06905575  0.11189788     0.01800
C635        C  0.78410408  0.05403490  0.09327000     0.16800
C636        C  0.77535756  0.06525440  0.07014341     0.26200
C637        C  0.77948858  0.09173577  0.06510281    -0.40100
C638        C  0.79190431  0.10679878  0.08419327     0.33300
C639        C  0.80801743  0.05687674  0.13532872     0.01900
F640        F  0.78021208  0.02843074  0.09750158    -0.12400
F641        F  0.79613250  0.13243139  0.08046997    -0.13000
C642        C  0.79754783  0.06167191  0.15991967     0.16800
C643        C  0.80930416  0.05131832  0.18213097     0.26200
C644        C  0.83199888  0.03626322  0.18008098    -0.40100
C645        C  0.84202251  0.03111323  0.15523361     0.33200
C646        C  0.83010220  0.04128875  0.13314162     0.14900
F647        F  0.77606808  0.07659306  0.16239608    -0.12400
F648        F  0.86356954  0.01640052  0.15220755    -0.12900
F649        F  0.79887742  0.05670011  0.20561805    -0.15200
F650        F  0.84063239  0.03660915  0.10954424    -0.13800
F651        F  0.81295615  0.11033713  0.12500545    -0.13800
F652        F  0.76294061  0.05009732  0.05271019    -0.15200
C653        C  0.84649492  0.20758909  0.95848151     0.14900
C654        C  0.86494714  0.19351513  0.94449301     0.01800
C655        C  0.86076907  0.16725272  0.93951220     0.16800
C656        C  0.83855910  0.15497341  0.94876522     0.26200
C657        C  0.82000915  0.16884469  0.96315845    -0.40100
C658        C  0.82413282  0.19540766  0.96771461     0.33300
C659        C  0.88856154  0.20610468  0.93471178     0.01900
F660        F  0.87827372  0.15350950  0.92558773    -0.12400
F661        F  0.80678578  0.20955408  0.98141489    -0.13000
C662        C  0.91127905  0.20596835  0.94956384     0.16800
C663        C  0.93428217  0.21599015  0.93939726     0.26200
C664        C  0.93491395  0.22612477  0.91404353    -0.40100
C665        C  0.91173115  0.22687707  0.89955980     0.33200
C666        C  0.88882236  0.21690048  0.90984026     0.14900
F667        F  0.91126868  0.19555427  0.97370891    -0.12400
F668        F  0.91117365  0.23693266  0.87526254    -0.12900
F669        F  0.95599391  0.21515833  0.95417615    -0.15200
F670        F  0.86694120  0.21723397  0.89528038    -0.13800
F671        F  0.85022328  0.23310735  0.96323827    -0.13800
F672        F  0.83515067  0.12954673  0.94333315    -0.15200
C673        C  0.33761923  0.05318439  0.36115489     0.14900
C674        C  0.31162759  0.04708822  0.36597122     0.01800
C675        C  0.29813537  0.03153950  0.34830978     0.16800
C676        C  0.31050074  0.02212502  0.32613733     0.26200
C677        C  0.33662361  0.02823017  0.32120109    -0.40100
C678        C  0.35000446  0.04393153  0.33900808     0.33300
C679        C  0.29857696  0.05761192  0.38914865     0.01900
F680        F  0.27304753  0.02520601  0.35274082    -0.12400
F681        F  0.37503740  0.05070986  0.33491530    -0.13000
C682        C  0.27844507  0.07562963  0.38643716     0.16800
C683        C  0.26754345  0.08729999  0.40826672     0.26200
C684        C  0.27651675  0.08103417  0.43331239    -0.40100
C685        C  0.29613842  0.06223774  0.43594246     0.33200
C686        C  0.30712565  0.05076184  0.41403902     0.14900
F687        F  0.27001369  0.08265983  0.36253044    -0.12400
F688        F  0.30539789  0.05555502  0.45963249    -0.12900
F689        F  0.24842741  0.10499160  0.40477746    -0.15200
F690        F  0.32639039  0.03313940  0.41708189    -0.13800
F691        F  0.35088872  0.06862728  0.37769961    -0.13800
F692        F  0.29691528  0.00685872  0.30969285    -0.15200
C693        C  0.29689090  0.95530450  0.09283867     0.14900
C694        C  0.30747206  0.93967956  0.11241616     0.01800
C695        C  0.30750400  0.91276907  0.10945485     0.16800
C696        C  0.29699811  0.90150092  0.08729920     0.26200
C697        C  0.28624042  0.91700183  0.06749308    -0.40100
C698        C  0.28642714  0.94410488  0.07049284     0.33300
C699        C  0.31902663  0.95123049  0.13583491     0.01900
F700        F  0.31756589  0.89733841  0.12824904    -0.12400
F701        F  0.27663176  0.95983566  0.05182550    -0.13000
C702        C  0.30339370  0.96326135  0.15444898     0.16800
C703        C  0.31428275  0.97271725  0.17737714     0.26200
C704        C  0.34111123  0.97042978  0.18195555    -0.40100
C705        C  0.35669422  0.95860353  0.16294106     0.33200
C706        C  0.34570638  0.94905869  0.14019594     0.14900
F707        F  0.27745911  0.96518398  0.15071159    -0.12400
F708        F  0.38261681  0.95600789  0.16632329    -0.12900
F709        F  0.29846134  0.98377618  0.19515853    -0.15200
F710        F  0.36115183  0.93759151  0.12233352    -0.13800
F711        F  0.29714525  0.98143187  0.09518855    -0.13800
F712        F  0.29744270  0.87534091  0.08536250    -0.15200
C713        C  0.46195635  0.84500942  0.30617010     0.14900
C714        C  0.44638746  0.86156758  0.32098722     0.01800
C715        C  0.44172789  0.85562709  0.34705812     0.16800
C716        C  0.45266574  0.83356895  0.35830668     0.26200
C717        C  0.46839723  0.81682156  0.34358732    -0.40100
C718        C  0.47281489  0.82277554  0.31730035     0.33300
C719        C  0.43487429  0.88502667  0.30926616     0.01900
F720        F  0.42676696  0.87142252  0.36174132    -0.12400
F721        F  0.48773661  0.80722994  0.30232958    -0.13000
C722        C  0.40799335  0.88697988  0.30614290     0.16800
C723        C  0.39701122  0.90913892  0.29511709     0.26200
C724        C  0.41276600  0.92995013  0.28711679    -0.40100
C725        C  0.43976874  0.92794651  0.29054897     0.33200
C726        C  0.45067478  0.90564826  0.30146341     0.14900
F727        F  0.39236853  0.86722441  0.31353869    -0.12400
F728        F  0.45569904  0.94758030  0.28353617    -0.12900
F729        F  0.37091081  0.91007851  0.29228203    -0.15200
F730        F  0.47668671  0.90434772  0.30489077    -0.13800
F731        F  0.46630893  0.85022307  0.28077569    -0.13800
F732        F  0.44762645  0.82860031  0.38361961    -0.15200
C733        C  0.45286153  0.09191449  0.20854605     0.14900
C734        C  0.43711202  0.11164313  0.19854157     0.01800
C735        C  0.41020533  0.10976682  0.20079970     0.16800
C736        C  0.39900400  0.08820967  0.21258932     0.26200
C737        C  0.41459752  0.06787485  0.22214478    -0.40100
C738        C  0.44173771  0.07013804  0.22023706     0.33300
C739        C  0.44853778  0.13402577  0.18510605     0.01900
F740        F  0.39474524  0.12881619  0.19132525    -0.12400
F741        F  0.45755504  0.05128456  0.22948191    -0.13000
C742        C  0.45009433  0.13426374  0.15802886     0.16800
C743        C  0.45983434  0.15588962  0.14504577     0.26200
C744        C  0.46807204  0.17777653  0.15900918    -0.40100
C745        C  0.46638049  0.17739575  0.18626593     0.33200
C746        C  0.45674298  0.15563733  0.19916178     0.14900
F747        F  0.44193017  0.11356160  0.14416165    -0.12400
F748        F  0.47412211  0.19798988  0.20052238    -0.12900
F749        F  0.46070797  0.15550871  0.11878519    -0.15200
F750        F  0.45508811  0.15574408  0.22538521    -0.13800
F751        F  0.47899637  0.09361315  0.20661658    -0.13800
F752        F  0.37281697  0.08720667  0.21425961    -0.15200
C753        C  0.38636326  0.27738299  0.06875812     0.14900
C754        C  0.39018870  0.29439911  0.04796593     0.01800
C755        C  0.41527280  0.29838838  0.03838900     0.16800
C756        C  0.43646663  0.28624291  0.05018572     0.26200
C757        C  0.43280632  0.27028977  0.07202435    -0.40100
C758        C  0.40746859  0.26545636  0.08074465     0.33300
C759        C  0.36818265  0.30964591  0.03800319     0.01900
F760        F  0.41926989  0.31468213  0.01814776    -0.12400
F761        F  0.40312266  0.24960760  0.10126947    -0.13000
C762        C  0.36511661  0.33537894  0.04582947     0.16800
C763        C  0.34328331  0.34950706  0.03830889     0.26200
C764        C  0.32405738  0.33812730  0.02264783    -0.40100
C765        C  0.32741566  0.31224429  0.01466902     0.33200
C766        C  0.34928243  0.29815656  0.02236818     0.14900
F767        F  0.38298600  0.34657782  0.06146685    -0.12400
F768        F  0.30946134  0.30037488  0.99966683    -0.12900
F769        F  0.34084883  0.37418923  0.04681839    -0.15200
F770        F  0.35195756  0.27319994  0.01475137    -0.13800
F771        F  0.36222265  0.27330133  0.07823651    -0.13800
F772        F  0.46060473  0.29127374  0.04115051    -0.15200
C773        C  0.64726365  0.16245226  0.05656153     0.14900
C774        C  0.64195357  0.18883237  0.05292832     0.01800
C775        C  0.65884301  0.20384249  0.03783074     0.16800
C776        C  0.68046583  0.19254603  0.02614272     0.26200
C777        C  0.68567617  0.16600573  0.02950670    -0.40100
C778        C  0.66895477  0.15117305  0.04514026     0.33300
C779        C  0.61836599  0.20035563  0.06432187     0.01900
F780        F  0.65445877  0.22952096  0.03452320    -0.12400
F781        F  0.67349468  0.12567044  0.04948208    -0.13000
C782        C  0.61367382  0.19839616  0.09102745     0.16800
C783        C  0.59055932  0.20763333  0.10152738     0.26200
C784        C  0.57170042  0.21917173  0.08548474    -0.40100
C785        C  0.57680127  0.22175320  0.05882725     0.33200
C786        C  0.59986985  0.21234666  0.04836110     0.14900
F787        F  0.63150363  0.18743434  0.10697455    -0.12400
F788        F  0.55946039  0.23330076  0.04277083    -0.12900
F789        F  0.58650505  0.20473737  0.12733643    -0.15200
F790        F  0.60378251  0.21423542  0.02244187    -0.13800
F791        F  0.63103691  0.14738750  0.07069914    -0.13800
F792        F  0.69605926  0.20758391  0.01130319    -0.15200
C793        C  0.69949592  0.45347041  0.33771715     0.14900
C794        C  0.68747602  0.45215053  0.36203015     0.01800
C795        C  0.66123060  0.45874401  0.36423978     0.16800
C796        C  0.64710208  0.46643790  0.34242894     0.26200
C797        C  0.65909741  0.46798755  0.31797300    -0.40100
C798        C  0.68550700  0.46145798  0.31589638     0.33300
C799        C  0.70184603  0.44269546  0.38495183     0.01900
F800        F  0.64913524  0.45716387  0.38751200    -0.12400
F801        F  0.69773777  0.46230154  0.29266925    -0.13000
C802        C  0.70611122  0.45890554  0.40628589     0.16800
C803        C  0.71787551  0.44925562  0.42875727     0.26200
C804        C  0.72532701  0.42307673  0.43035153    -0.40100
C805        C  0.72170469  0.40713768  0.40850878     0.33200
C806        C  0.71014322  0.41690985  0.38606487     0.14900
F807        F  0.69862617  0.48405457  0.40540765    -0.12400
F808        F  0.72883415  0.38187116  0.40891654    -0.12900
F809        F  0.72131536  0.46541637  0.44912350    -0.15200
F810        F  0.70611400  0.40087432  0.36569483    -0.13800
F811        F  0.72484385  0.44706680  0.33515031    -0.13800
F812        F  0.62173341  0.47257676  0.34537706    -0.15200
C813        C  0.55024279  0.58461580  0.31422397     0.14900
C814        C  0.55865701  0.60901551  0.30579341     0.01800
C815        C  0.57694324  0.61066484  0.28584550     0.16800
C816        C  0.58712256  0.58822392  0.27476109     0.26200
C817        C  0.57888702  0.56363616  0.28319493    -0.40100
C818        C  0.56009566  0.56207370  0.30288101     0.33300
C819        C  0.54899296  0.63282018  0.31828213     0.01900
F820        F  0.58533996  0.63408708  0.27747202    -0.12400
F821        F  0.55185991  0.53877659  0.31174840    -0.13000
C822        C  0.55813557  0.63990181  0.34281139     0.16800
C823        C  0.54942034  0.66264285  0.35457221     0.26200
C824        C  0.53122456  0.67872275  0.34199320    -0.40100
C825        C  0.52228321  0.67156496  0.31722446     0.33200
C826        C  0.53115338  0.64884096  0.30549716     0.14900
F827        F  0.57585888  0.62492091  0.35519934    -0.12400
F828        F  0.50464633  0.68629991  0.30444389    -0.12900
F829        F  0.55911377  0.66902083  0.37813324    -0.15200
F830        F  0.52211150  0.64227958  0.28173102    -0.13800
F831        F  0.53257090  0.58267635  0.33355304    -0.13800
F832        F  0.60499536  0.59061822  0.25566504    -0.15200
C833        C  0.57941820  0.38846279  0.19025950     0.14900
C834        C  0.55242127  0.38563245  0.19052691     0.01800
C835        C  0.53713592  0.40504221  0.20180301     0.16800
C836        C  0.54875573  0.42661537  0.21332433     0.26200
C837        C  0.57592560  0.42906524  0.21385154    -0.40100
C838        C  0.59106971  0.40982137  0.20186844     0.33300
C839        C  0.54056503  0.36191603  0.17977729     0.01900
F840        F  0.51098334  0.40271758  0.20234621    -0.12400
F841        F  0.61725981  0.41162756  0.20117844    -0.13000
C842        C  0.54794920  0.33759789  0.18947925     0.16800
C843        C  0.53828904  0.31497873  0.17844706     0.26200
C844        C  0.52104142  0.31622186  0.15740401    -0.40100
C845        C  0.51308415  0.34060183  0.14812193     0.33200
C846        C  0.52273484  0.36326579  0.15926709     0.14900
F847        F  0.56480887  0.33575689  0.20957156    -0.12400
F848        F  0.49602830  0.34253596  0.12819955    -0.12900
F849        F  0.54666095  0.29186372  0.18774947    -0.15200
F850        F  0.51533812  0.38649844  0.14945588    -0.13800
F851        F  0.59457120  0.37047900  0.17857987    -0.13800
F852        F  0.53339157  0.44473792  0.22445551    -0.15200
C853        C  0.78181167  0.42251417  0.62149547     0.14900
C854        C  0.79812212  0.44417814  0.62126666     0.01800
C855        C  0.80312881  0.45679338  0.59765931     0.16800
C856        C  0.79267375  0.44739916  0.57452526     0.26200
C857        C  0.77717247  0.42504643  0.57457263    -0.40100
C858        C  0.77143270  0.41302496  0.59840627     0.33300
C859        C  0.81083847  0.45291639  0.64542902     0.01900
F860        F  0.81843770  0.47808618  0.59699859    -0.12400
F861        F  0.75595011  0.39187093  0.59940944    -0.13000
C862        C  0.83793561  0.45335664  0.64710725     0.16800
C863        C  0.85017310  0.46176182  0.66968972     0.26200
C864        C  0.83551709  0.46991516  0.69121846    -0.40100
C865        C  0.80829581  0.46888928  0.68965257     0.33200
C866        C  0.79611111  0.46050208  0.66695694     0.14900
F867        F  0.85262226  0.44528957  0.62688781    -0.12400
F868        F  0.79335557  0.47619298  0.70995969    -0.12900
F869        F  0.87642993  0.46196619  0.67030312    -0.15200
F870        F  0.76987284  0.46028244  0.66581007    -0.13800
F871        F  0.77672697  0.40990330  0.64400026    -0.13800
F872        F  0.79858156  0.45963070  0.55201761    -0.15200
C873        C  0.95480878  0.40630197  0.79110668     0.14900
C874        C  0.94113050  0.38831162  0.80615850     0.01800
C875        C  0.91451545  0.39179229  0.81008943     0.16800
C876        C  0.90176718  0.41319738  0.79954528     0.26200
C877        C  0.91551286  0.43182090  0.78507314    -0.40100
C878        C  0.94215248  0.42790725  0.78066442     0.33300
C879        C  0.95451721  0.36596098  0.81804453     0.01900
F880        F  0.90082566  0.37433923  0.82416614    -0.12400
F881        F  0.95601952  0.44493532  0.76626933    -0.13000
C882        C  0.95587016  0.36363273  0.84507217     0.16800
C883        C  0.96737464  0.34194373  0.85646342     0.26200
C884        C  0.97772343  0.32202295  0.84096715    -0.40100
C885        C  0.97661942  0.32466219  0.81380943     0.33200
C886        C  0.96516156  0.34647147  0.80250101     0.14900
F887        F  0.94595691  0.38242886  0.86047007    -0.12400
F888        F  0.98608324  0.30592217  0.79809236    -0.12900
F889        F  0.96800502  0.34040111  0.88269907    -0.15200
F890        F  0.96369216  0.34819308  0.77631741    -0.13800
F891        F  0.98057709  0.40323904  0.78705618    -0.13800
F892        F  0.87601036  0.41581805  0.80396314    -0.15200
C893        C  0.69640191  0.59216073  0.11870025     0.14900
C894        C  0.69467133  0.56505472  0.11958814     0.01800
C895        C  0.70572909  0.55059986  0.09939883     0.16800
C896        C  0.71796382  0.56299866  0.07859156     0.26200
C897        C  0.71920650  0.59021986  0.07733995    -0.40100
C898        C  0.70836935  0.60461423  0.09781238     0.33300
C899        C  0.68093597  0.55199628  0.14131885     0.01900
F900        F  0.70404630  0.52441496  0.09942808    -0.12400
F901        F  0.70908871  0.63083732  0.09764029    -0.13000
C902        C  0.65528961  0.55880038  0.14737497     0.16800
C903        C  0.64245300  0.54705993  0.16813232     0.26200
C904        C  0.65489933  0.52805484  0.18327510    -0.40100
C905        C  0.68045239  0.52094190  0.17693226     0.33200
C906        C  0.69333205  0.53285165  0.15624434     0.14900
F907        F  0.64250548  0.57673739  0.13299696    -0.12400
F908        F  0.69303806  0.50238156  0.19067300    -0.12900
F909        F  0.61793252  0.55472365  0.17362119    -0.15200
F910        F  0.71819117  0.52605670  0.15117949    -0.13800
F911        F  0.68662140  0.60667918  0.13825382    -0.13800
F912        F  0.72828371  0.54822519  0.05952528    -0.15200
C913        C  0.85003767  0.70880516  0.03527285     0.14900
C914        C  0.86872042  0.69552575  0.04996256     0.01800
C915        C  0.86465918  0.66936121  0.05598526     0.16800
C916        C  0.84217465  0.65675334  0.04789988     0.26200
C917        C  0.82304936  0.67007983  0.03365397    -0.40100
C918        C  0.82741962  0.69624706  0.02718318     0.33300
C919        C  0.89187907  0.70899459  0.06025127     0.01900
F920        F  0.88218724  0.65614393  0.07048454    -0.12400
F921        F  0.80982646  0.70980943  0.01310035    -0.13000
C922        C  0.88902429  0.73000332  0.07720951     0.16800
C923        C  0.91061217  0.74061186  0.08960231     0.26200
C924        C  0.93551686  0.73052795  0.08512408    -0.40100
C925        C  0.93847708  0.71027811  0.06720440     0.33200
C926        C  0.91684932  0.69960374  0.05492980     0.14900
F927        F  0.86517287  0.73956283  0.08264321    -0.12400
F928        F  0.96216512  0.69999240  0.06239500    -0.12900
F929        F  0.90709532  0.76067610  0.10611983    -0.15200
F930        F  0.92022973  0.67973438  0.03814686    -0.13800
F931        F  0.85376442  0.73394198  0.02865470    -0.13800
F932        F  0.83909348  0.63150945  0.05440185    -0.15200
C933        C  0.79538932  0.54993493  0.91850882     0.14900
C934        C  0.79979235  0.56410575  0.89567609     0.01800
C935        C  0.79381535  0.59057892  0.89520802     0.16800
C936        C  0.78406633  0.60282545  0.91723995     0.26200
C937        C  0.78009369  0.58885392  0.94039115    -0.40100
C938        C  0.78563954  0.56215113  0.94065424     0.33300
C939        C  0.81157576  0.55166552  0.87263223     0.01900
F940        F  0.79814854  0.60483462  0.87353995    -0.12400
F941        F  0.78198786  0.54782916  0.96239922    -0.13000
C942        C  0.79886824  0.55217463  0.84856609     0.16800
C943        C  0.81070559  0.54178531  0.82653725     0.26200
C944        C  0.83558788  0.53070574  0.82808739    -0.40100
C945        C  0.84812728  0.52995984  0.85236545     0.33200
C946        C  0.83620803  0.54030040  0.87434874     0.14900
F947        F  0.77493445  0.56280084  0.84638965    -0.12400
F948        F  0.87206537  0.51942486  0.85492297    -0.12900
F949        F  0.79793465  0.54310134  0.80359770    -0.15200
F950        F  0.84914358  0.53996245  0.89723855    -0.13800
F951        F  0.80046426  0.52419030  0.91931526    -0.13800
F952        F  0.77872165  0.62848698  0.91583213    -0.15200
C953        C  0.54155354  0.14281012  0.64930308     0.14900
C954        C  0.54942153  0.14340860  0.67527118     0.01800
C955        C  0.54734891  0.16649651  0.68924542     0.16800
C956        C  0.53747350  0.18880287  0.67746052     0.26200
C957        C  0.52973033  0.18849289  0.65126916    -0.40100
C958        C  0.53191139  0.16515125  0.63731668     0.33300
C959        C  0.56070532  0.12020157  0.68760590     0.01900
F960        F  0.55496487  0.16739888  0.71438212    -0.12400
F961        F  0.52478027  0.16384181  0.61205725    -0.13000
C962        C  0.58752888  0.11844452  0.69110142     0.16800
C963        C  0.59845937  0.09661152  0.70278440     0.26200
C964        C  0.58267903  0.07604672  0.71134068    -0.40100
C965        C  0.55564675  0.07807752  0.70800138     0.33200
C966        C  0.54481918  0.09994213  0.69611193     0.14900
F967        F  0.60318718  0.13784197  0.68287974    -0.12400
F968        F  0.53963487  0.05895136  0.71614643    -0.12900
F969        F  0.62456798  0.09567814  0.70554892    -0.15200
F970        F  0.51877316  0.10146160  0.69305319    -0.13800
F971        F  0.54365494  0.12064780  0.63543829    -0.13800
F972        F  0.53584595  0.21075592  0.69169521    -0.15200
C973        C  0.65685460  0.05851161  0.85473262     0.14900
C974        C  0.68397068  0.05971565  0.85596136     0.01800
C975        C  0.69855394  0.05008709  0.83514893     0.16800
C976        C  0.68621251  0.03959831  0.81340768     0.26200
C977        C  0.65897113  0.03857660  0.81201960    -0.40100
C978        C  0.64447252  0.04812223  0.83306178     0.33300
C979        C  0.69681458  0.07136672  0.87886970     0.01900
F980        F  0.72477797  0.05138609  0.83561263    -0.12400
F981        F  0.61822223  0.04741640  0.83282970    -0.13000
C982        C  0.71415999  0.05691250  0.89409991     0.16800
C983        C  0.72522487  0.06765181  0.91641287     0.26200
C984        C  0.71918223  0.09315350  0.92392311    -0.40100
C985        C  0.70205663  0.10766700  0.90829765     0.33200
C986        C  0.69107964  0.09689292  0.88606247     0.14900
F987        F  0.71988935  0.03211900  0.88772047    -0.12400
F988        F  0.69562684  0.13232179  0.91455333    -0.12900
F989        F  0.74174848  0.05297487  0.93066471    -0.15200
F990        F  0.67486919  0.11152630  0.87138342    -0.13800
F991        F  0.64226993  0.06717245  0.87477416    -0.13800
F992        F  0.70102463  0.03067438  0.79365907    -0.15200
C993        C  0.59338540  0.70920594  0.95870235     0.14900
C994        C  0.61710154  0.70716516  0.94564195     0.01800
C995        C  0.61894240  0.71597251  0.92002610     0.16800
C996        C  0.59728747  0.72625455  0.90740978     0.26200
C997        C  0.57326156  0.72808560  0.92025536    -0.40100
C998        C  0.57166753  0.71968170  0.94621374     0.33300
C999        C  0.63964531  0.69468222  0.95821678     0.01900
F1000       F  0.64160512  0.71386326  0.90692814    -0.12400
F1001       F  0.54902625  0.72108425  0.95943031    -0.13000
C1002       C  0.63941643  0.66799823  0.96304462     0.16800
C1003       C  0.66108997  0.65574184  0.97370527     0.26200
C1004       C  0.68341715  0.67002998  0.98003562    -0.40100
C1005       C  0.68337396  0.69694619  0.97562033     0.33200
C1006       C  0.66174745  0.70908913  0.96456398     0.14900
F1007       F  0.61835451  0.65366451  0.95677212    -0.12400
F1008       F  0.70445623  0.71146838  0.98136005    -0.12900
F1009       F  0.66013294  0.62983891  0.97783824    -0.15200
F1010       F  0.66237072  0.73492778  0.95995778    -0.13800
F1011       F  0.59127979  0.70091268  0.98356583    -0.13800
F1012       F  0.59988828  0.73411144  0.88245618    -0.15200
C1013       C  0.45136347  0.64615694  0.84134830     0.14900
C1014       C  0.45607816  0.64165920  0.81503457     0.01800
C1015       C  0.47146388  0.65898930  0.80096746     0.16800
C1016       C  0.48183682  0.68082623  0.81302652     0.26200
C1017       C  0.47704920  0.68557082  0.83946709    -0.40100
C1018       C  0.46183152  0.66781792  0.85353811     0.33300
C1019       C  0.44429473  0.61915156  0.80221813     0.01900
F1020       F  0.47593280  0.65503120  0.77539227    -0.12400
F1021       F  0.45659081  0.67157714  0.87900064    -0.13000
C1022       C  0.41761907  0.61880884  0.79745309     0.16800
C1023       C  0.40604233  0.59711196  0.78639768     0.26200
C1024       C  0.42098765  0.57516751  0.78009910    -0.40100
C1025       C  0.44790165  0.57579287  0.78462534     0.33200
C1026       C  0.45943179  0.59768875  0.79550927     0.14900
F1027       F  0.40275125  0.63954622  0.80364976    -0.12400
F1028       F  0.46309931  0.55522632  0.77870544    -0.12900
F1029       F  0.38008609  0.59750746  0.78238178    -0.15200
F1030       F  0.48529925  0.59775234  0.80009298    -0.13800
F1031       F  0.43650136  0.62952268  0.85522014    -0.13800
F1032       F  0.49647394  0.69730295  0.79875109    -0.15200
C1033       C  0.55595554  0.84450594  0.80089543     0.14900
C1034       C  0.54813327  0.86909886  0.80941843     0.01800
C1035       C  0.53000314  0.87095470  0.82956257     0.16800
C1036       C  0.52054260  0.84865848  0.84161019     0.26200
C1037       C  0.52896004  0.82402402  0.83368476    -0.40100
C1038       C  0.54635634  0.82214839  0.81281325     0.33300
C1039       C  0.55974076  0.89279150  0.79814735     0.01900
F1040       F  0.52213485  0.89443591  0.83821972    -0.12400
F1041       F  0.55489007  0.79874477  0.80457670    -0.13000
C1042       C  0.54413355  0.91185820  0.78657717     0.16800
C1043       C  0.55520042  0.93439090  0.77638669     0.26200
C1044       C  0.58217337  0.93824361  0.77748591    -0.40100
C1045       C  0.59770603  0.91909387  0.78928734     0.33200
C1046       C  0.58657930  0.89668480  0.79951753     0.14900
F1047       F  0.51815789  0.90846031  0.78478859    -0.12400
F1048       F  0.62372519  0.92207022  0.79127128    -0.12900
F1049       F  0.53946906  0.95225360  0.76521599    -0.15200
F1050       F  0.60203175  0.87896069  0.81131577    -0.13800
F1051       F  0.57311439  0.84217236  0.78114936    -0.13800
F1052       F  0.50313266  0.85120642  0.86110124    -0.15200
C1053       C  0.38642655  0.78638230  0.91328848     0.14900
C1054       C  0.38756083  0.80340641  0.93431876     0.01800
C1055       C  0.41165263  0.81017806  0.94473776     0.16800
C1056       C  0.43446570  0.80026899  0.93411590     0.26200
C1057       C  0.43356793  0.78352024  0.91266481    -0.40100
C1058       C  0.40922269  0.77657123  0.90243796     0.33300
C1059       C  0.36374498  0.81533913  0.94454706     0.01900
F1060       F  0.41304553  0.82670571  0.96505425    -0.12400
F1061       F  0.40739476  0.76028261  0.88195775    -0.13000
C1062       C  0.34816191  0.80211775  0.96239256     0.16800
C1063       C  0.32604429  0.81397710  0.97261994     0.26200
C1064       C  0.31923247  0.83933966  0.96513545    -0.40100
C1065       C  0.33492883  0.85235886  0.94699383     0.33200
C1066       C  0.35694875  0.84042808  0.93684185     0.14900
F1067       F  0.35468990  0.77792068  0.97027985    -0.12400
F1068       F  0.32900907  0.87665872  0.93894063    -0.12900
F1069       F  0.31172989  0.80085018  0.99030389    -0.15200
F1070       F  0.37177542  0.85340601  0.91946574    -0.13800
F1071       F  0.36322471  0.77968802  0.90296831    -0.13800
F1072       F  0.45743715  0.80771389  0.94440687    -0.15200
C1073       C  0.94625498  0.66313469  0.70416532     0.14900
C1074       C  0.94536833  0.63896479  0.69168746     0.01800
C1075       C  0.95624287  0.63671338  0.66682203     0.16800
C1076       C  0.96678258  0.65821411  0.65430708     0.26200
C1077       C  0.96746307  0.68242723  0.66661181    -0.40100
C1078       C  0.95758137  0.68454067  0.69192788     0.33300
C1079       C  0.93291759  0.61611682  0.70415480     0.01900
F1080       F  0.95691956  0.61351964  0.65460907    -0.12400
F1081       F  0.95806284  0.70751141  0.70456408    -0.13000
C1082       C  0.91469808  0.60133964  0.69036178     0.16800
C1083       C  0.90415499  0.57893075  0.70118335     0.26200
C1084       C  0.91100306  0.57106155  0.72637610    -0.40100
C1085       C  0.92861823  0.58619087  0.74052333     0.33200
C1086       C  0.93961307  0.60838347  0.72946569     0.14900
F1087       F  0.90688706  0.60868762  0.66633618    -0.12400
F1088       F  0.93492857  0.57974913  0.76522512    -0.12900
F1089       F  0.88761018  0.56462205  0.68668464    -0.15200
F1090       F  0.95725632  0.62195021  0.74334557    -0.13800
F1091       F  0.93536440  0.66631698  0.72784855    -0.13800
F1092       F  0.97664877  0.65516574  0.63015838    -0.15200
C1093       C  0.05364206  0.85785899  0.65918754     0.14900
C1094       C  0.04731815  0.86377679  0.68485132     0.01800
C1095       C  0.03025046  0.84779739  0.69855155     0.16800
C1096       C  0.01986106  0.82578388  0.68681227     0.26200
C1097       C  0.02639070  0.81949221  0.66107282    -0.40100
C1098       C  0.04323679  0.83597724  0.64732044     0.33300
C1099       C  0.05897697  0.88647280  0.69738567     0.01900
F1100       F  0.02384839  0.85344653  0.72338388    -0.12400
F1101       F  0.05005922  0.83077727  0.62250260    -0.13000
C1102       C  0.04588523  0.91020656  0.69750182     0.16800
C1103       C  0.05746007  0.93203208  0.70842776     0.26200
C1104       C  0.08242644  0.93040147  0.71931735    -0.40100
C1105       C  0.09531875  0.90636296  0.71939701     0.33200
C1106       C  0.08365122  0.88460962  0.70848857     0.14900
F1107       F  0.02210894  0.91231410  0.68650950    -0.12400
F1108       F  0.11918037  0.90381217  0.73012094    -0.12900
F1109       F  0.04454152  0.95488228  0.70759298    -0.15200
F1110       F  0.09650284  0.86170094  0.70855981    -0.13800
F1111       F  0.07004877  0.87328318  0.64567243    -0.13800
F1112       F  0.00332813  0.81077894  0.70062983    -0.15200
C1113       C  0.70359142  0.91688544  0.60989122     0.14900
C1114       C  0.69260688  0.94166884  0.60815433     0.01800
C1115       C  0.69364649  0.95506492  0.58448431     0.16800
C1116       C  0.70536123  0.94380456  0.56283734     0.26200
C1117       C  0.71624737  0.91885234  0.56448059    -0.40100
C1118       C  0.71529402  0.90558813  0.58832823     0.33300
C1119       C  0.68007201  0.95343354  0.63107907     0.01900
F1120       F  0.68355105  0.97922562  0.58241355    -0.12400
F1121       F  0.72579506  0.88165022  0.59093930    -0.13000
C1122       C  0.69416509  0.95704376  0.65403226     0.16800
C1123       C  0.68230234  0.96762199  0.67588929     0.26200
C1124       C  0.65602577  0.97488811  0.67525406    -0.40100
C1125       C  0.64192913  0.97126371  0.65214562     0.33200
C1126       C  0.65387081  0.96063832  0.63030130     0.14900
F1127       F  0.71957854  0.95047694  0.65522702    -0.12400
F1128       F  0.61659257  0.97804681  0.65055148    -0.12900
F1129       F  0.69654490  0.97035383  0.69779489    -0.15200
F1130       F  0.63968091  0.95685600  0.60850613    -0.13800
F1131       F  0.70257756  0.90337881  0.63243653    -0.13800
F1132       F  0.70566627  0.95721902  0.54022112    -0.15200
C1133       C  0.63817052  0.84282199  0.45049665     0.14900
C1134       C  0.63687374  0.81579877  0.45079739     0.01800
C1135       C  0.65777660  0.80137275  0.46033064     0.16800
C1136       C  0.67995392  0.81387967  0.46940965     0.26200
C1137       C  0.68157441  0.84110193  0.46886048    -0.40100
C1138       C  0.66030609  0.85542482  0.45941302     0.33300
C1139       C  0.61415563  0.80273351  0.43982573     0.01900
F1140       F  0.65675688  0.77515235  0.46057275    -0.12400
F1141       F  0.66081476  0.88165162  0.45874846    -0.13000
C1142       C  0.61434330  0.79525771  0.41380783     0.16800
C1143       C  0.59242877  0.78411283  0.40271839     0.26200
C1144       C  0.56990258  0.78020366  0.41757401    -0.40100
C1145       C  0.56999178  0.78736162  0.44389361     0.33200
C1146       C  0.59198009  0.79866219  0.45487692     0.14900
F1147       F  0.63570703  0.79915649  0.39904055    -0.12400
F1148       F  0.54864652  0.78410280  0.45883587    -0.12900
F1149       F  0.59336661  0.77708081  0.37743733    -0.15200
F1150       F  0.59157229  0.80595674  0.48009835    -0.13800
F1151       F  0.61806880  0.85697706  0.44115597    -0.13800
F1152       F  0.69990650  0.79927714  0.47835162    -0.15200
C1153       C  0.84359840  0.80262200  0.53565772     0.14900
C1154       C  0.86298239  0.81729711  0.54766660     0.01800
C1155       C  0.86060976  0.84428019  0.54846487     0.16800
C1156       C  0.83894482  0.85648862  0.53784048     0.26200
C1157       C  0.81903641  0.84187279  0.52632313    -0.40100
C1158       C  0.82178913  0.81476778  0.52503672     0.33300
C1159       C  0.88536604  0.80458353  0.56017504     0.01900
F1160       F  0.87939596  0.85884464  0.55956915    -0.12400
F1161       F  0.80322553  0.79990805  0.51395691    -0.13000
C1162       C  0.90422820  0.79195868  0.54531860     0.16800
C1163       C  0.92594981  0.78089471  0.55726291     0.26200
C1164       C  0.92900833  0.78209274  0.58437151    -0.40100
C1165       C  0.90978983  0.79463195  0.59914575     0.33200
C1166       C  0.88826466  0.80577714  0.58712530     0.14900
F1167       F  0.90184446  0.79085397  0.51917311    -0.12400
F1168       F  0.91191586  0.79654642  0.62526489    -0.12900
F1169       F  0.94391672  0.76904687  0.54224854    -0.15200
F1170       F  0.87010800  0.81774414  0.60184629    -0.13800
F1171       F  0.84546090  0.77645779  0.53489783    -0.13800
F1172       F  0.83756424  0.88267241  0.53888576    -0.15200
C1173       C  0.80987037  0.91857003  0.39097949     0.14900
C1174       C  0.80970901  0.94560422  0.38886082     0.01800
C1175       C  0.79815275  0.96038717  0.40844966     0.16800
C1176       C  0.78632413  0.94825600  0.42960631     0.26200
C1177       C  0.78590919  0.92106116  0.43150565    -0.40100
C1178       C  0.79807934  0.90638606  0.41202808     0.33300
C1179       C  0.82031247  0.95815958  0.36543159     0.01900
F1180       F  0.79760643  0.98656533  0.40664553    -0.12400
F1181       F  0.79873121  0.88017771  0.41330128    -0.13000
C1182       C  0.80890580  0.95337542  0.34126850     0.16800
C1183       C  0.81890576  0.96467571  0.31883956     0.26200
C1184       C  0.84071755  0.98090898  0.32009727    -0.40100
C1185       C  0.85202564  0.98584716  0.34447011     0.33200
C1186       C  0.84182950  0.97459909  0.36694067     0.14900
F1187       F  0.78794185  0.93770525  0.33943289    -0.12400
F1188       F  0.87292468  0.00156080  0.34663872    -0.12900
F1189       F  0.80751146  0.95917512  0.29582729    -0.15200
F1190       F  0.85331576  0.97926608  0.39010795    -0.13800
F1191       F  0.82151935  0.90393749  0.37256717    -0.13800
F1192       F  0.77476761  0.96315794  0.44784579    -0.15200
C1193       C  0.36330265  0.65570528  0.45566853     0.14900
C1194       C  0.36753546  0.68242549  0.45736999     0.01800
C1195       C  0.34843894  0.69818918  0.46850010     0.16800
C1196       C  0.32506488  0.68748382  0.47708531     0.26200
C1197       C  0.32041787  0.66073589  0.47471999    -0.40100
C1198       C  0.34002893  0.64495343  0.46415239     0.33300
C1199       C  0.39077918  0.69396041  0.44526658     0.01900
F1200       F  0.35202455  0.72412303  0.47010656    -0.12400
F1201       F  0.33674984  0.61903506  0.46177289    -0.13000
C1202       C  0.39465415  0.69106778  0.41856523     0.16800
C1203       C  0.41621396  0.70190110  0.40654731     0.26200
C1204       C  0.43458125  0.71586914  0.42101133    -0.40100
C1205       C  0.43066269  0.71883120  0.44787133     0.33200
C1206       C  0.40889262  0.70796476  0.45987582     0.14900
F1207       F  0.37723371  0.67795668  0.40395994    -0.12400
F1208       F  0.44768956  0.73241035  0.46250691    -0.12900
F1209       F  0.41906573  0.69850003  0.38065881    -0.15200
F1210       F  0.40568336  0.71078587  0.48579594    -0.13800
F1211       F  0.38171751  0.63999994  0.44546499    -0.13800
F1212       F  0.30681931  0.70344219  0.48713659    -0.15200
C1213       C  0.11352921  0.70976400  0.59146097     0.14900
C1214       C  0.11363790  0.70005258  0.56611926     0.01800
C1215       C  0.09053651  0.70015351  0.55179555     0.16800
C1216       C  0.06759195  0.70965353  0.56269904     0.26200
C1217       C  0.06736570  0.71935979  0.58820357    -0.40100
C1218       C  0.09071109  0.71934719  0.60238701     0.33300
C1219       C  0.13753351  0.68847424  0.55525480     0.01900
F1220       F  0.09003591  0.69025571  0.52748679    -0.12400
F1221       F  0.09161249  0.72862981  0.62692763    -0.13000
C1222       C  0.14827731  0.66641254  0.56688231     0.16800
C1223       C  0.17042174  0.65486131  0.55660129     0.26200
C1224       C  0.18247486  0.66516641  0.53435762    -0.40100
C1225       C  0.17188343  0.68761109  0.52293212     0.33200
C1226       C  0.14955247  0.69909590  0.53327406     0.14900
F1227       F  0.13694158  0.65566235  0.58801862    -0.12400
F1228       F  0.18281564  0.69826163  0.50154017    -0.12900
F1229       F  0.17998909  0.63348555  0.56854786    -0.15200
F1230       F  0.13975402  0.72072174  0.52198161    -0.13800
F1231       F  0.13564245  0.70999117  0.60566284    -0.13800
F1232       F  0.04555402  0.70881822  0.54842651    -0.15200
C1233       C  0.18094398  0.57235663  0.40816673     0.14900
C1234       C  0.19739216  0.55991601  0.39040652     0.01800
C1235       C  0.22391916  0.55780554  0.39628969     0.16800
C1236       C  0.23382699  0.56848691  0.41915858     0.26200
C1237       C  0.21750343  0.58203664  0.43618628    -0.40100
C1238       C  0.19094215  0.58361348  0.43059733     0.33300
C1239       C  0.18682912  0.55022513  0.36543047     0.01900
F1240       F  0.24045385  0.54643721  0.37937405    -0.12400
F1241       F  0.17455701  0.59593269  0.44699550    -0.13000
C1242       C  0.17209170  0.56676585  0.34955247     0.16800
C1243       C  0.16060243  0.55757809  0.32689611     0.26200
C1244       C  0.16412972  0.53176335  0.31913001    -0.40100
C1245       C  0.17971158  0.51540908  0.33445321     0.33200
C1246       C  0.19075783  0.52449541  0.35752178     0.14900
F1247       F  0.16893386  0.59202532  0.35590836    -0.12400
F1248       F  0.18342175  0.49034155  0.32769067    -0.12900
F1249       F  0.14620863  0.57414070  0.31238347    -0.15200
F1250       F  0.20452406  0.50788407  0.37257047    -0.13800
F1251       F  0.15507600  0.57367377  0.40375173    -0.13800
F1252       F  0.25959957  0.56674166  0.42396100    -0.15200
C1253       C  0.33945472  0.54112560  0.63583515     0.14900
C1254       C  0.31318593  0.54766952  0.63740702     0.01800
C1255       C  0.30008002  0.54482711  0.66096252     0.16800
C1256       C  0.31326124  0.53612034  0.68298567     0.26200
C1257       C  0.33989208  0.53022995  0.68175587    -0.40100
C1258       C  0.35273905  0.53245711  0.65778671     0.33300
C1259       C  0.30026755  0.56005386  0.61517820     0.01900
F1260       F  0.27468152  0.55128192  0.66277724    -0.12400
F1261       F  0.37822068  0.52647369  0.65554457    -0.13000
C1262       C  0.28656941  0.54543016  0.59694254     0.16800
C1263       C  0.27537325  0.55750785  0.57533442     0.26200
C1264       C  0.27785396  0.58444284  0.57169191    -0.40100
C1265       C  0.29104500  0.59899738  0.59061044     0.33200
C1266       C  0.30220049  0.58685402  0.61203095     0.14900
F1267       F  0.28438873  0.51944536  0.59990231    -0.12400
F1268       F  0.29334304  0.62504903  0.58844497    -0.12900
F1269       F  0.26252582  0.54276355  0.55785605    -0.15200
F1270       F  0.31521582  0.60125481  0.62969027    -0.13800
F1271       F  0.35237602  0.54376591  0.61311416    -0.13800
F1272       F  0.30009691  0.53430693  0.70564177    -0.15200
loop_ 
_geom_bond_atom_site_label_1 
_geom_bond_atom_site_label_2 
_geom_bond_distance 
_geom_bond_site_symmetry_2 
_ccdc_geom_bond_type 
O1            C4   1.267       .  A
O1           Cd6   2.488       .  S
C2           O11   1.264       .  A
C2            O7   1.265       .  A
C2         C1237   1.479       .  S
O3            C9   1.270       .  A
O3           Cd6   2.503       .  S
C4           O12   1.264       .  A
C4         C1264   1.485       .  S
C5           O10   1.267       .  A
C5            O8   1.262       .  A
C5         C1197   1.488       .  S
Cd6          O13   2.432       .  S
Cd6          O12   2.436       .  S
Cd6          O11   2.460       .  S
Cd6           O7   2.488       .  S
Cd6          O10   2.501       .  S
Cd6           O8   2.445       .  S
C9           O13   1.265       .  A
C9         C1224   1.489       .  S
O14          C17   1.266       .  A
O14         Cd19   2.476       .  S
C15          O24   1.265       .  A
C15          O20   1.266       .  A
C15        C1117   1.484       .  S
O16          C22   1.265       .  A
O16         Cd19   2.464       .  S
C17          O25   1.264       .  A
C17        C1177   1.484       .  S
C18          O23   1.266       .  A
C18          O21   1.265       .  A
C18        C1157   1.484       .  S
Cd19         O26   2.450       .  S
Cd19         O25   2.447       .  S
Cd19         O24   2.447       .  S
Cd19         O20   2.476       .  S
Cd19         O23   2.473       .  S
Cd19         O21   2.442       .  S
C22          O26   1.265       .  A
C22        C1137   1.483       .  S
O27          C30   1.266       .  A
O27         Cd32   2.488       .  S
C28          O37   1.265       .  A
C28          O33   1.266       .  A
C28        C1097   1.484       .  S
O29          C35   1.267       .  A
O29         Cd32   2.492   1_455  S
C30          O38   1.265       .  A
C30        C1077   1.484       .  S
C31          O36   1.267       .  A
C31          O34   1.263       .  A
C31        C1164   1.487       .  S
Cd32         O39   2.455   1_655  S
Cd32         O38   2.454       .  S
Cd32         O37   2.451   1_655  S
Cd32         O33   2.469   1_655  S
Cd32         O36   2.496       .  S
Cd32         O34   2.449       .  S
C35          O39   1.265       .  A
C35        C1217   1.490       .  S
O40          C43   1.266       .  A
O40         Cd45   2.501       .  S
C41          O50   1.265       .  A
C41          O46   1.268       .  A
C41        C1057   1.485       .  S
O42          C48   1.266       .  A
O42         Cd45   2.487       .  S
C43          O51   1.263       .  A
C43         C997   1.489       .  S
C44          O49   1.266       .  A
C44          O47   1.265       .  A
C44        C1017   1.483       .  S
Cd45         O52   2.457       .  S
Cd45         O51   2.458       .  S
Cd45         O50   2.462       .  S
Cd45         O46   2.467       .  S
Cd45         O49   2.466       .  S
Cd45         O47   2.447       .  S
C48          O52   1.264       .  A
C48        C1037   1.482       .  S
O53          C56   1.267       .  A
O53         Cd58   2.481       .  S
C54          O63   1.265       .  A
C54          O59   1.267       .  A
C54        C1124   1.486       .  S
O55          C61   1.268       .  A
O55         Cd58   2.488   1_565  S
C56          O64   1.265       .  A
C56         C977   1.489       .  S
C57          O62   1.268       .  A
C57          O60   1.265       .  A
C57         C964   1.488       .  S
Cd58         O65   2.447   1_545  S
Cd58         O64   2.457       .  S
Cd58         O63   2.469   1_545  S
Cd58         O59   2.466   1_545  S
Cd58         O62   2.485       .  S
Cd58         O60   2.444       .  S
C61          O65   1.264       .  A
C61        C1044   1.487       .  S
O66          C69   1.266   1_554  A
O66         Cd71   2.488       .  S
C67          O76   1.265       .  A
C67          O72   1.265       .  A
C67         C917   1.490       .  S
O68          C74   1.266       .  A
O68         Cd71   2.486       .  S
C69          O77   1.265       .  A
C69        C1004   1.486       .  S
C70          O75   1.266       .  A
C70          O73   1.263       .  A
C70         C937   1.489       .  S
Cd71         O78   2.479       .  S
Cd71         O77   2.457   1_554  S
Cd71         O76   2.487       .  S
Cd71         O72   2.471       .  S
Cd71         O75   2.497   1_554  S
Cd71         O73   2.457   1_554  S
C74          O78   1.266       .  A
C74         C897   1.492       .  S
O79          C82   1.265       .  A
O79         Cd84   2.444       .  S
C80          O89   1.267       .  A
C80          O85   1.262       .  A
C80        C1084   1.483       .  S
O81          C87   1.269       .  A
O81         Cd84   2.476       .  S
C82          O90   1.268       .  A
C82         C877   1.486       .  S
C83          O88   1.267       .  A
C83          O86   1.263       .  A
C83         C944   1.488       .  S
Cd84         O91   2.443       .  S
Cd84         O90   2.483       .  S
Cd84         O89   2.501       .  S
Cd84         O85   2.451       .  S
Cd84         O88   2.487       .  S
Cd84         O86   2.465       .  S
C87          O91   1.266       .  A
C87         C864   1.487       .  S
O92          C95   1.266       .  A
O92         Cd97   2.499       .  S
C93         O102   1.264       .  A
C93          O98   1.268       .  A
C93         C817   1.484       .  S
O94         C100   1.265       .  A
O94         Cd97   2.473       .  S
C95         O103   1.263       .  A
C95         C837   1.487       .  S
C96         O101   1.267       .  A
C96          O99   1.266       .  A
C96         C904   1.487       .  S
Cd97        O104   2.473       .  S
Cd97        O103   2.451       .  S
Cd97        O102   2.445       .  S
Cd97         O98   2.495       .  S
Cd97        O101   2.473       .  S
Cd97         O99   2.460       .  S
C100        O104   1.265       .  A
C100        C797   1.485       .  S
O105        C108   1.266       .  A
O105       Cd110   2.462       .  S
C106        O115   1.263       .  A
C106        O111   1.265       .  A
C106        C844   1.478       .  S
O107        C113   1.263       .  A
O107       Cd110   2.449       .  S
C108        O116   1.266       .  A
C108        C744   1.483       .  S
C109        O114   1.267       .  A
C109        O112   1.266       .  A
C109        C757   1.479       .  S
Cd110       O117   2.465       .  S
Cd110       O116   2.455       .  S
Cd110       O115   2.460       .  S
Cd110       O111   2.462       .  S
Cd110       O114   2.471       .  S
Cd110       O112   2.434       .  S
C113        O117   1.265       .  A
C113        C784   1.481       .  S
O118        C121   1.268       .  A
O118       Cd123   2.483       .  S
C119        O128   1.264       .  A
C119        O124   1.268       .  A
C119        C737   1.486       .  S
O120        C126   1.267       .  A
O120       Cd123   2.479       .  S
C121        O129   1.264       .  A
C121        C724   1.487       .  S
C122        O127   1.267       .  A
C122        O125   1.265       .  A
C122        C677   1.485       .  S
Cd123       O130   2.446       .  S
Cd123       O129   2.447       .  S
Cd123       O128   2.437   1_565  S
Cd123       O124   2.489   1_565  S
Cd123       O127   2.472   1_565  S
Cd123       O125   2.443   1_565  S
C126        O130   1.264       .  A
C126        C704   1.486       .  S
O131        C134   1.264       .  A
O131       Cd136   2.448       .  S
C132        O141   1.265       .  A
C132        O137   1.267       .  A
C132        C824   1.488       .  S
O133        C139   1.267       .  A
O133       Cd136   2.469       .  S
C134        O142   1.267       .  A
C134        C717   1.487       .  S
C135        O140   1.266       .  A
C135        O138   1.264       .  A
C135       C1204   1.484       .  S
Cd136       O143   2.436       .  S
Cd136       O142   2.490       .  S
Cd136       O141   2.465       .  S
Cd136       O137   2.482       .  S
Cd136       O140   2.486       .  S
Cd136       O138   2.433       .  S
C139        O143   1.265       .  A
C139       C1144   1.480       .  S
O144        C147   1.269       .  A
O144       Cd149   2.488   1_554  S
C145        O154   1.264       .  A
C145        O150   1.268       .  A
C145        C984   1.491       .  S
O146        C152   1.267       .  A
O146       Cd149   2.470   1_554  S
C147        O155   1.264       .  A
C147        C637   1.489       .  S
C148        O153   1.266       .  A
C148        O151   1.265       .  A
C148        C657   1.485       .  S
Cd149       O156   2.433   1_556  S
Cd149       O155   2.451   1_556  S
Cd149       O154   2.454       .  S
Cd149       O150   2.499       .  S
Cd149       O153   2.477       .  S
Cd149       O151   2.451       .  S
C152        O156   1.265       .  A
C152        C777   1.482       .  S
O157        C160   1.268       .  A
O157       Cd162   2.473   1_655  S
C158        O167   1.266       .  A
C158        O163   1.265       .  A
C158        C624   1.489       .  S
O159        C165   1.267       .  A
O159       Cd162   2.479       .  S
C160        O168   1.265       .  A
C160        C884   1.486       .  S
C161        O166   1.268       .  A
C161        O164   1.263       .  A
C161        C664   1.485       .  S
Cd162       O169   2.459       .  S
Cd162       O168   2.441   1_455  S
Cd162       O167   2.483       .  S
Cd162       O163   2.464       .  S
Cd162       O166   2.486   1_455  S
Cd162       O164   2.436   1_455  S
C165        O169   1.265       .  A
C165        C597   1.485       .  S
O170        C173   1.267       .  A
O170       Cd175   2.474   1_554  S
C171        O180   1.266       .  A
C171        O176   1.264       .  A
C171       C1064   1.485       .  S
O172        C178   1.268       .  A
O172       Cd175   2.470       .  S
C173        O181   1.264       .  A
C173        C557   1.481       .  S
C174        O179   1.267       .  A
C174        O177   1.263       .  A
C174        C697   1.486       .  S
Cd175       O182   2.446       .  S
Cd175       O181   2.448   1_556  S
Cd175       O180   2.482       .  S
Cd175       O176   2.451       .  S
Cd175       O179   2.494   1_556  S
Cd175       O177   2.443   1_556  S
C178        O182   1.266       .  A
C178        C584   1.483       .  S
O183        C186   1.266       .  A
O183       Cd188   2.474   1_545  S
C184        O193   1.264       .  A
C184        O189   1.266       .  A
C184       C1104   1.481       .  S
O185        C191   1.267       .  A
O185       Cd188   2.477   1_545  S
C186        O194   1.265       .  A
C186        C617   1.485       .  S
C187        O192   1.266       .  A
C187        O190   1.264       .  A
C187        C577   1.485       .  S
Cd188       O195   2.445   1_565  S
Cd188       O194   2.460   1_565  S
Cd188       O193   2.450       .  S
Cd188       O189   2.469       .  S
Cd188       O192   2.477       .  S
Cd188       O190   2.453       .  S
C191        O195   1.265       .  A
C191        C537   1.485       .  S
O196        C199   1.267       .  A
O196       Cd201   2.465   1_565  S
C197        O206   1.264       .  A
C197        O202   1.266       .  A
C197        C644   1.488       .  S
O198        C204   1.268       .  A
O198       Cd201   2.484       .  S
C199        O207   1.265   1_565  A
C199       C1184   1.484       .  S
C200        O205   1.268       .  A
C200        O203   1.265       .  A
C200        C517   1.489       .  S
Cd201       O208   2.448       .  S
Cd201       O207   2.463       .  S
Cd201       O206   2.458       .  S
Cd201       O202   2.496       .  S
Cd201       O205   2.489   1_545  S
Cd201       O203   2.455   1_545  S
C204        O208   1.264       .  A
C204        C497   1.487       .  S
O209        C212   1.265       .  A
O209       Cd214   2.485       .  S
C210        O219   1.266       .  A
C210        O215   1.266       .  A
C210        C924   1.482       .  S
O211        C217   1.266       .  A
O211       Cd214   2.505       .  S
C212        O220   1.263       .  A
C212        C564   1.485       .  S
C213        O218   1.268       .  A
C213        O216   1.264       .  A
C213        C524   1.490       .  S
Cd214       O221   2.457       .  S
Cd214       O220   2.452       .  S
Cd214       O219   2.466   1_455  S
Cd214       O215   2.468   1_455  S
Cd214       O218   2.493   1_455  S
Cd214       O216   2.456   1_455  S
C217        O221   1.264       .  A
C217        C484   1.489       .  S
O222        C225   1.266       .  A
O222       Cd227   2.505       .  S
C223        O232   1.265       .  A
C223        O228   1.267       .  A
C223        C444   1.490       .  S
O224        C230   1.267       .  A
O224       Cd227   2.500       .  S
C225        O233   1.263       .  A
C225       C1244   1.484       .  S
C226        O231   1.268       .  A
C226        O229   1.266       .  A
C226        C477   1.488       .  S
Cd227       O234   2.442       .  S
Cd227       O233   2.458       .  S
Cd227       O232   2.465       .  S
Cd227       O228   2.486       .  S
Cd227       O231   2.471       .  S
Cd227       O229   2.458       .  S
C230        O234   1.263       .  A
C230        C457   1.486       .  S
O235        C238   1.265       .  A
O235       Cd240   2.458       .  S
C236        O245   1.265       .  A
C236        O241   1.264       .  A
C236        C417   1.484       .  S
O237        C243   1.267       .  A
O237       Cd240   2.484       .  S
C238        O246   1.266       .  A
C238       C1257   1.483       .  S
C239        O244   1.266       .  A
C239        O242   1.263       .  A
C239       C1024   1.484       .  S
Cd240       O247   2.435       .  S
Cd240       O246   2.457       .  S
Cd240       O245   2.458       .  S
Cd240       O241   2.466       .  S
Cd240       O244   2.482       .  S
Cd240       O242   2.448       .  S
C243        O247   1.264       .  A
C243        C397   1.485       .  S
O248        C251   1.267       .  A
O248       Cd253   2.498   1_554  S
C249        O258   1.264       .  A
C249        O254   1.267       .  A
C249        C424   1.484       .  S
O250        C256   1.264       .  A
O250       Cd253   2.484   1_554  S
C251        O259   1.264       .  A
C251        C437   1.489       .  S
C252        O257   1.267       .  A
C252        O255   1.265       .  A
C252        C604   1.483       .  S
Cd253       O260   2.473   1_556  S
Cd253       O259   2.447   1_556  S
Cd253       O258   2.445       .  S
Cd253       O254   2.482       .  S
Cd253       O257   2.473       .  S
Cd253       O255   2.450       .  S
C256        O260   1.264       .  A
C256        C764   1.488       .  S
O261        C264   1.264       .  A
O261       Cd266   2.485       .  S
C262        O271   1.266       .  A
C262        O267   1.266       .  A
C262        C377   1.488       .  S
O263        C269   1.267       .  A
O263       Cd266   2.478       .  S
C264        O272   1.263       .  A
C264        C357   1.488       .  S
C265        O270   1.266       .  A
C265        O268   1.263       .  A
C265        C544   1.486       .  S
Cd266       O273   2.462       .  S
Cd266       O272   2.472       .  S
Cd266       O271   2.461       .  S
Cd266       O267   2.479       .  S
Cd266       O270   2.498       .  S
Cd266       O268   2.453       .  S
C269        O273   1.265       .  A
C269        C684   1.486       .  S
O274        C277   1.266       .  A
O274       Cd279   2.472   1_455  S
C275        O284   1.263       .  A
C275        O280   1.266       .  A
C275        C337   1.483       .  S
O276        C282   1.266       .  A
O276       Cd279   2.479   1_455  S
C277        O285   1.266       .  A
C277        C384   1.489       .  S
C278        O283   1.267       .  A
C278        O281   1.266       .  A
C278        C504   1.484       .  S
Cd279       O286   2.448   1_655  S
Cd279       O285   2.468   1_655  S
Cd279       O284   2.443       .  S
Cd279       O280   2.476       .  S
Cd279       O283   2.469       .  S
Cd279       O281   2.463       .  S
C282        O286   1.264       .  A
C282        C464   1.484       .  S
O287        C290   1.266       .  A
O287       Cd292   2.461       .  S
C288        O297   1.266       .  A
C288        O293   1.267       .  A
C288        C317   1.481       .  S
O289        C295   1.268       .  A
O289       Cd292   2.483       .  S
C290        O298   1.265       .  A
C290        C344   1.483       .  S
C291        O296   1.268       .  A
C291        O294   1.263       .  A
C291        C804   1.486       .  S
Cd292       O299   2.440       .  S
Cd292       O298   2.455       .  S
Cd292       O297   2.446       .  S
Cd292       O293   2.462       .  S
Cd292       O296   2.488       .  S
Cd292       O294   2.438       .  S
C295        O299   1.264       .  A
C295        C857   1.483       .  S
O300        C303   1.267       .  A
O300       Cd305   2.491       .  S
C301        O310   1.265       .  A
C301        O306   1.267       .  A
C301        C324   1.485       .  S
O302        C308   1.266       .  A
O302       Cd305   2.484       .  S
C303        O311   1.264       .  A
C303        C364   1.485       .  S
C304        O309   1.267       .  A
C304        O307   1.266       .  A
C304        C957   1.488       .  S
Cd305       O312   2.462       .  S
Cd305       O311   2.438       .  S
Cd305       O310   2.444       .  S
Cd305       O306   2.482       .  S
Cd305       O309   2.469       .  S
Cd305       O307   2.468       .  S
C308        O312   1.264       .  A
C308        C404   1.488       .  S
C313        C314   1.401       .  A
C313        C318   1.397       .  A
C313        F331   1.358       .  S
C314        C319   1.472       .  S
C314        C315   1.401       .  A
C315        C316   1.399       .  A
C315        F320   1.358       .  S
C316        C317   1.410       .  A
C316        F332   1.358       .  S
C317        C318   1.410       .  A
C318        F321   1.358       .  S
C319        C322   1.402       .  A
C319        C326   1.400       .  A
C322        C323   1.401       .  A
C322        F327   1.358       .  S
C323        C324   1.412       .  A
C323        F329   1.357       .  S
C324        C325   1.411       .  A
C325        C326   1.396       .  A
C325        F328   1.358       .  S
C326        F330   1.358       .  S
C333        C334   1.403       .  A
C333        C338   1.396       .  A
C333        F351   1.358       .  S
C334        C339   1.478       .  S
C334        C335   1.404       .  A
C335        C336   1.400       .  A
C335        F340   1.358       .  S
C336        C337   1.410       .  A
C336        F352   1.358       .  S
C337        C338   1.410       .  A
C338        F341   1.358       .  S
C339        C342   1.403       .  A
C339        C346   1.403       .  A
C342        C343   1.397       .  A
C342        F347   1.358       .  S
C343        C344   1.410       .  A
C343        F349   1.358       .  S
C344        C345   1.411       .  A
C345        C346   1.399       .  A
C345        F348   1.358       .  S
C346        F350   1.358       .  S
C353        C354   1.403       .  A
C353        C358   1.399       .  A
C353        F371   1.358       .  S
C354        C359   1.481       .  S
C354        C355   1.404       .  A
C355        C356   1.400       .  A
C355        F360   1.358       .  S
C356        C357   1.411       .  A
C356        F372   1.358       .  S
C357        C358   1.412       .  A
C358        F361   1.358       .  S
C359        C362   1.405       .  A
C359        C366   1.402       .  A
C362        C363   1.402       .  A
C362        F367   1.358       .  S
C363        C364   1.410       .  A
C363        F369   1.358       .  S
C364        C365   1.411       .  A
C365        C366   1.396       .  A
C365        F368   1.358       .  S
C366        F370   1.358       .  S
C373        C374   1.405       .  A
C373        C378   1.399       .  A
C373        F391   1.358       .  S
C374        C379   1.485       .  S
C374        C375   1.405       .  A
C375        C376   1.402       .  A
C375        F380   1.358       .  S
C376        C377   1.411       .  A
C376        F392   1.358       .  S
C377        C378   1.410       .  A
C378        F381   1.358       .  S
C379        C382   1.405       .  A
C379        C386   1.405       .  A
C382        C383   1.400       .  A
C382        F387   1.358       .  S
C383        C384   1.411       .  A
C383        F389   1.358       .  S
C384        C385   1.411       .  A
C385        C386   1.400       .  A
C385        F388   1.358       .  S
C386        F390   1.358       .  S
C393        C394   1.404       .  A
C393        C398   1.401       .  A
C393        F411   1.358       .  S
C394        C399   1.477       .  S
C394        C395   1.401       .  A
C395        C396   1.397       .  A
C395        F400   1.358       .  S
C396        C397   1.412       .  A
C396        F412   1.358       .  S
C397        C398   1.411       .  A
C398        F401   1.358       .  S
C399        C402   1.403       .  A
C399        C406   1.402       .  A
C402        C403   1.400       .  A
C402        F407   1.358       .  S
C403        C404   1.411       .  A
C403        F409   1.357       .  S
C404        C405   1.412       .  A
C405        C406   1.399       .  A
C405        F408   1.358       .  S
C406        F410   1.358       .  S
C413        C414   1.404       .  A
C413        C418   1.400       .  A
C413        F431   1.358       .  S
C414        C419   1.479       .  S
C414        C415   1.403       .  A
C415        C416   1.397       .  A
C415        F420   1.358       .  S
C416        C417   1.409       .  A
C416        F432   1.358       .  S
C417        C418   1.411       .  A
C418        F421   1.358       .  S
C419        C422   1.403       .  A
C419        C426   1.404       .  A
C422        C423   1.398       .  A
C422        F427   1.358       .  S
C423        C424   1.411       .  A
C423        F429   1.358       .  S
C424        C425   1.409       .  A
C425        C426   1.399       .  A
C425        F428   1.358       .  S
C426        F430   1.358       .  S
C433        C434   1.405       .  A
C433        C438   1.403       .  A
C433        F451   1.358       .  S
C434        C439   1.483       .  S
C434        C435   1.403       .  A
C435        C436   1.397       .  A
C435        F440   1.358       .  S
C436        C437   1.411       .  A
C436        F452   1.358       .  S
C437        C438   1.412       .  A
C438        F441   1.358       .  S
C439        C442   1.404       .  A
C439        C446   1.404       .  A
C442        C443   1.400       .  A
C442        F447   1.358       .  S
C443        C444   1.412       .  A
C443        F449   1.358       .  S
C444        C445   1.411       .  A
C445        C446   1.401       .  A
C445        F448   1.357       .  S
C446        F450   1.358       .  S
C453        C454   1.403       .  A
C453        C458   1.403       .  A
C453        F471   1.358       .  S
C454        C459   1.475       .  S
C454        C455   1.400       .  A
C455        C456   1.395       .  A
C455        F460   1.358       .  S
C456        C457   1.411       .  A
C456        F472   1.358       .  S
C457        C458   1.412       .  A
C458        F461   1.358       .  S
C459        C462   1.402       .  A
C459        C466   1.402       .  A
C462        C463   1.400       .  A
C462        F467   1.358       .  S
C463        C464   1.411       .  A
C463        F469   1.358       .  S
C464        C465   1.411       .  A
C465        C466   1.397       .  A
C465        F468   1.358       .  S
C466        F470   1.358       .  S
C473        C474   1.403       .  A
C473        C478   1.400       .  A
C473        F491   1.358       .  S
C474        C479   1.482       .  S
C474        C475   1.404       .  A
C475        C476   1.400       .  A
C475        F480   1.358       .  S
C476        C477   1.411       .  A
C476        F492   1.358       .  S
C477        C478   1.412       .  A
C478        F481   1.358       .  S
C479        C482   1.402       .  A
C479        C486   1.405       .  A
C482        C483   1.399       .  A
C482        F487   1.358       .  S
C483        C484   1.411       .  A
C483        F489   1.358       .  S
C484        C485   1.411       .  A
C485        C486   1.403       .  A
C485        F488   1.357       .  S
C486        F490   1.358       .  S
C493        C494   1.403       .  A
C493        C498   1.400       .  A
C493        F511   1.358       .  S
C494        C499   1.478       .  S
C494        C495   1.402       .  A
C495        C496   1.399       .  A
C495        F500   1.358       .  S
C496        C497   1.413       .  A
C496        F512   1.358       .  S
C497        C498   1.410       .  A
C498        F501   1.357       .  S
C499        C502   1.403       .  A
C499        C506   1.403       .  A
C502        C503   1.400       .  A
C502        F507   1.358       .  S
C503        C504   1.410       .  A
C503        F509   1.358       .  S
C504        C505   1.410       .  A
C505        C506   1.399       .  A
C505        F508   1.358       .  S
C506        F510   1.358       .  S
C513        C514   1.405       .  A
C513        C518   1.402       .  A
C513        F531   1.358       .  S
C514        C519   1.483       .  S
C514        C515   1.403       .  A
C515        C516   1.400       .  A
C515        F520   1.358       .  S
C516        C517   1.412       .  A
C516        F532   1.358       .  S
C517        C518   1.410       .  A
C518        F521   1.358       .  S
C519        C522   1.404       .  A
C519        C526   1.403       .  A
C522        C523   1.402       .  A
C522        F527   1.358       .  S
C523        C524   1.411       .  A
C523        F529   1.357       .  S
C524        C525   1.412       .  A
C525        C526   1.399       .  A
C525        F528   1.358       .  S
C526        F530   1.358       .  S
C533        C534   1.404       .  A
C533        C538   1.396       .  A
C533        F551   1.358       .  S
C534        C539   1.482       .  S
C534        C535   1.405       .  A
C535        C536   1.402       .  A
C535        F540   1.358       .  S
C536        C537   1.411       .  A
C536        F552   1.358       .  S
C537        C538   1.410       .  A
C538        F541   1.358       .  S
C539        C542   1.404       .  A
C539        C546   1.405       .  A
C542        C543   1.396       .  A
C542        F547   1.358       .  S
C543        C544   1.410       .  A
C543        F549   1.358       .  S
C544        C545   1.411       .  A
C545        C546   1.403       .  A
C545        F548   1.357       .  S
C546        F550   1.358       .  S
C553        C554   1.405       .  A
C553        C558   1.399       .  A
C553        F571   1.358       .  S
C554        C559   1.483       .  S
C554        C555   1.406       .  A
C555        C556   1.398       .  A
C555        F560   1.358       .  S
C556        C557   1.407       .  A
C556        F572   1.358       .  S
C557        C558   1.410       .  A
C558        F561   1.358       .  S
C559        C562   1.406       .  A
C559        C566   1.404       .  A
C562        C563   1.401       .  A
C562        F567   1.358       .  S
C563        C564   1.411       .  A
C563        F569   1.358       .  S
C564        C565   1.410       .  A
C565        C566   1.396       .  A
C565        F568   1.358       .  S
C566        F570   1.358       .  S
C573        C574   1.406       .  A
C573        C578   1.400       .  A
C573        F591   1.358       .  S
C574        C579   1.485       .  S
C574        C575   1.405       .  A
C575        C576   1.398       .  A
C575        F580   1.358       .  S
C576        C577   1.410       .  A
C576        F592   1.358       .  S
C577        C578   1.410       .  A
C578        F581   1.358       .  S
C579        C582   1.406       .  A
C579        C586   1.406       .  A
C582        C583   1.400       .  A
C582        F587   1.358       .  S
C583        C584   1.408       .  A
C583        F589   1.358       .  S
C584        C585   1.409       .  A
C585        C586   1.398       .  A
C585        F588   1.358       .  S
C586        F590   1.358       .  S
C593        C594   1.404       .  A
C593        C598   1.401       .  A
C593        F611   1.358       .  S
C594        C599   1.480       .  S
C594        C595   1.403       .  A
C595        C596   1.399       .  A
C595        F600   1.358       .  S
C596        C597   1.410       .  A
C596        F612   1.358       .  S
C597        C598   1.410       .  A
C598        F601   1.358       .  S
C599        C602   1.404       .  A
C599        C606   1.404       .  A
C602        C603   1.400       .  A
C602        F607   1.358       .  S
C603        C604   1.409       .  A
C603        F609   1.358   1_556  S
C604        C605   1.410       .  A
C605        C606   1.398       .  A
C605        F608   1.358       .  S
C606        F610   1.358       .  S
C613        C614   1.402       .  A
C613        C618   1.400       .  A
C613        F631   1.358       .  S
C614        C619   1.476       .  S
C614        C615   1.402       .  A
C615        C616   1.399       .  A
C615        F620   1.358       .  S
C616        C617   1.411       .  A
C616        F632   1.358       .  S
C617        C618   1.410       .  A
C618        F621   1.358       .  S
C619        C622   1.401       .  A
C619        C626   1.402       .  A
C622        C623   1.399       .  A
C622        F627   1.358       .  S
C623        C624   1.412       .  A
C623        F629   1.358       .  S
C624        C625   1.412       .  A
C625        C626   1.401       .  A
C625        F628   1.357       .  S
C626        F630   1.358       .  S
C633        C634   1.402       .  A
C633        C638   1.399       .  A
C633        F651   1.358       .  S
C634        C639   1.480       .  S
C634        C635   1.403       .  A
C635        C636   1.401       .  A
C635        F640   1.358       .  S
C636        C637   1.411       .  A
C636        F652   1.357       .  S
C637        C638   1.413       .  A
C638        F641   1.358       .  S
C639        C642   1.404       .  A
C639        C646   1.402       .  A
C642        C643   1.403       .  A
C642        F647   1.358       .  S
C643        C644   1.412       .  A
C643        F649   1.358       .  S
C644        C645   1.411       .  A
C645        C646   1.398       .  A
C645        F648   1.358       .  S
C646        F650   1.358       .  S
C653        C654   1.402       .  A
C653        C658   1.401       .  A
C653        F671   1.358       .  S
C654        C659   1.474       .  S
C654        C655   1.401       .  A
C655        C656   1.397       .  A
C655        F660   1.358       .  S
C656        C657   1.411       .  A
C656        F672   1.358       .  S
C657        C658   1.412       .  A
C658        F661   1.358       .  S
C659        C662   1.402       .  A
C659        C666   1.400       .  A
C662        C663   1.400       .  A
C662        F667   1.358       .  S
C663        C664   1.410       .  A
C663        F669   1.358       .  S
C664        C665   1.413       .  A
C665        C666   1.397       .  A
C665        F668   1.358       .  S
C666        F670   1.358       .  S
C673        C674   1.403       .  A
C673        C678   1.397       .  A
C673        F691   1.358       .  S
C674        C679   1.480       .  S
C674        C675   1.404       .  A
C675        C676   1.401       .  A
C675        F680   1.358       .  S
C676        C677   1.411       .  A
C676        F692   1.358       .  S
C677        C678   1.411       .  A
C678        F681   1.358       .  S
C679        C682   1.403       .  A
C679        C686   1.404       .  A
C682        C683   1.399       .  A
C682        F687   1.358       .  S
C683        C684   1.411       .  A
C683        F689   1.358       .  S
C684        C685   1.410       .  A
C685        C686   1.400       .  A
C685        F688   1.358       .  S
C686        F690   1.358       .  S
C693        C694   1.403       .  A
C693        C698   1.402       .  A
C693        F711   1.358       .  S
C694        C699   1.477       .  S
C694        C695   1.401       .  A
C695        C696   1.396       .  A
C695        F700   1.358       .  S
C696        C697   1.412       .  A
C696        F712   1.358       .  S
C697        C698   1.411       .  A
C698        F701   1.358       .  S
C699        C702   1.403       .  A
C699        C706   1.402       .  A
C702        C703   1.401       .  A
C702        F707   1.358       .  S
C703        C704   1.412       .  A
C703        F709   1.358       .  S
C704        C705   1.411       .  A
C705        C706   1.397       .  A
C705        F708   1.358       .  S
C706        F710   1.358       .  S
C713        C714   1.404       .  A
C713        C718   1.401       .  A
C713        F731   1.358       .  S
C714        C719   1.479       .  S
C714        C715   1.402       .  A
C715        C716   1.398       .  A
C715        F720   1.358       .  S
C716        C717   1.412       .  A
C716        F732   1.358       .  S
C717        C718   1.411       .  A
C718        F721   1.358       .  S
C719        C722   1.402       .  A
C719        C726   1.403       .  A
C722        C723   1.398       .  A
C722        F727   1.358       .  S
C723        C724   1.412       .  A
C723        F729   1.358       .  S
C724        C725   1.411       .  A
C725        C726   1.400       .  A
C725        F728   1.357       .  S
C726        F730   1.358       .  S
C733        C734   1.402       .  A
C733        C738   1.401       .  A
C733        F751   1.358       .  S
C734        C739   1.473       .  S
C734        C735   1.399       .  A
C735        C736   1.396       .  A
C735        F740   1.358       .  S
C736        C737   1.412       .  A
C736        F752   1.358       .  S
C737        C738   1.412       .  A
C738        F741   1.358       .  S
C739        C742   1.401       .  A
C739        C746   1.401       .  A
C742        C743   1.398       .  A
C742        F747   1.358       .  S
C743        C744   1.411       .  A
C743        F749   1.358       .  S
C744        C745   1.411       .  A
C745        C746   1.399       .  A
C745        F748   1.358       .  S
C746        F750   1.358       .  S
C753        C754   1.402       .  A
C753        C758   1.396       .  A
C753        F771   1.358       .  S
C754        C759   1.475       .  S
C754        C755   1.404       .  A
C755        C756   1.401       .  A
C755        F760   1.358       .  S
C756        C757   1.409       .  A
C756        F772   1.358       .  S
C757        C758   1.408       .  A
C758        F761   1.358       .  S
C759        C762   1.401       .  A
C759        C766   1.401       .  A
C762        C763   1.398       .  A
C762        F767   1.358       .  S
C763        C764   1.411       .  A
C763        F769   1.358       .  S
C764        C765   1.413       .  A
C765        C766   1.401       .  A
C765        F768   1.357   1_554  S
C766        F770   1.358       .  S
C773        C774   1.404       .  A
C773        C778   1.395       .  A
C773        F791   1.358       .  S
C774        C779   1.480       .  S
C774        C775   1.405       .  A
C775        C776   1.399       .  A
C775        F780   1.358       .  S
C776        C777   1.409       .  A
C776        F792   1.358       .  S
C777        C778   1.410       .  A
C778        F781   1.358       .  S
C779        C782   1.405       .  A
C779        C786   1.405       .  A
C782        C783   1.397       .  A
C782        F787   1.358       .  S
C783        C784   1.410       .  A
C783        F789   1.358       .  S
C784        C785   1.409       .  A
C785        C786   1.397       .  A
C785        F788   1.358       .  S
C786        F790   1.358       .  S
C793        C794   1.404       .  A
C793        C798   1.400       .  A
C793        F811   1.358       .  S
C794        C799   1.479       .  S
C794        C795   1.403       .  A
C795        C796   1.399       .  A
C795        F800   1.358       .  S
C796        C797   1.410       .  A
C796        F812   1.358       .  S
C797        C798   1.410       .  A
C798        F801   1.358       .  S
C799        C802   1.404       .  A
C799        C806   1.402       .  A
C802        C803   1.401       .  A
C802        F807   1.358       .  S
C803        C804   1.410       .  A
C803        F809   1.358       .  S
C804        C805   1.412       .  A
C805        C806   1.397       .  A
C805        F808   1.358       .  S
C806        F810   1.358       .  S
C813        C814   1.404       .  A
C813        C818   1.402       .  A
C813        F831   1.358       .  S
C814        C819   1.479       .  S
C814        C815   1.402       .  A
C815        C816   1.398       .  A
C815        F820   1.358       .  S
C816        C817   1.410       .  A
C816        F832   1.358       .  S
C817        C818   1.409       .  A
C818        F821   1.358       .  S
C819        C822   1.402       .  A
C819        C826   1.403       .  A
C822        C823   1.400       .  A
C822        F827   1.358       .  S
C823        C824   1.412       .  A
C823        F829   1.358       .  S
C824        C825   1.411       .  A
C825        C826   1.401       .  A
C825        F828   1.357       .  S
C826        F830   1.358       .  S
C833        C834   1.404       .  A
C833        C838   1.396       .  A
C833        F851   1.358       .  S
C834        C839   1.482       .  S
C834        C835   1.405       .  A
C835        C836   1.402       .  A
C835        F840   1.358       .  S
C836        C837   1.411       .  A
C836        F852   1.357       .  S
C837        C838   1.411       .  A
C838        F841   1.358       .  S
C839        C842   1.405       .  A
C839        C846   1.405       .  A
C842        C843   1.396       .  A
C842        F847   1.358       .  S
C843        C844   1.407       .  A
C843        F849   1.358       .  S
C844        C845   1.409       .  A
C845        C846   1.400       .  A
C845        F848   1.358       .  S
C846        F850   1.358       .  S
C853        C854   1.404       .  A
C853        C858   1.398       .  A
C853        F871   1.358       .  S
C854        C859   1.482       .  S
C854        C855   1.406       .  A
C855        C856   1.400       .  A
C855        F860   1.358       .  S
C856        C857   1.408       .  A
C856        F872   1.358       .  S
C857        C858   1.410       .  A
C858        F861   1.358       .  S
C859        C862   1.404       .  A
C859        C866   1.405       .  A
C862        C863   1.398       .  A
C862        F867   1.358       .  S
C863        C864   1.412       .  A
C863        F869   1.358       .  S
C864        C865   1.411       .  A
C865        C866   1.401       .  A
C865        F868   1.358       .  S
C866        F870   1.358       .  S
C873        C874   1.404       .  A
C873        C878   1.401       .  A
C873        F891   1.358       .  S
C874        C879   1.479       .  S
C874        C875   1.402       .  A
C875        C876   1.397       .  A
C875        F880   1.358       .  S
C876        C877   1.411       .  A
C876        F892   1.358       .  S
C877        C878   1.410       .  A
C878        F881   1.357       .  S
C879        C882   1.403       .  A
C879        C886   1.403       .  A
C882        C883   1.398       .  A
C882        F887   1.358       .  S
C883        C884   1.412       .  A
C883        F889   1.358       .  S
C884        C885   1.411       .  A
C885        C886   1.400       .  A
C885        F888   1.357       .  S
C886        F890   1.358       .  S
C893        C894   1.406       .  A
C893        C898   1.401       .  A
C893        F911   1.358       .  S
C894        C899   1.490       .  S
C894        C895   1.407       .  A
C895        C896   1.402       .  A
C895        F900   1.358       .  S
C896        C897   1.411       .  A
C896        F912   1.358       .  S
C897        C898   1.411       .  A
C898        F901   1.357       .  S
C899        C902   1.407       .  A
C899        C906   1.407       .  A
C902        C903   1.400       .  A
C902        F907   1.358       .  S
C903        C904   1.409       .  A
C903        F909   1.358       .  S
C904        C905   1.410       .  A
C905        C906   1.402       .  A
C905        F908   1.358       .  S
C906        F910   1.358       .  S
C913        C914   1.405       .  A
C913        C918   1.403       .  A
C913        F931   1.358       .  S
C914        C919   1.485       .  S
C914        C915   1.404       .  A
C915        C916   1.398       .  A
C915        F920   1.358       .  S
C916        C917   1.410       .  A
C916        F932   1.357       .  S
C917        C918   1.412       .  A
C918        F921   1.358       .  S
C919        C922   1.406       .  A
C919        C926   1.406       .  A
C922        C923   1.400       .  A
C922        F927   1.358       .  S
C923        C924   1.408       .  A
C923        F929   1.358       .  S
C924        C925   1.408       .  A
C925        C926   1.400       .  A
C925        F928   1.358       .  S
C926        F930   1.358       .  S
C933        C934   1.406       .  A
C933        C938   1.402       .  A
C933        F951   1.358       .  S
C934        C939   1.486       .  S
C934        C935   1.404       .  A
C935        C936   1.398       .  A
C935        F940   1.358       .  S
C936        C937   1.411       .  A
C936        F952   1.358       .  S
C937        C938   1.411       .  A
C938        F941   1.358       .  S
C939        C942   1.406       .  A
C939        C946   1.404       .  A
C942        C943   1.401       .  A
C942        F947   1.358       .  S
C943        C944   1.410       .  A
C943        F949   1.358       .  S
C944        C945   1.412       .  A
C945        C946   1.400       .  A
C945        F948   1.358       .  S
C946        F950   1.358       .  S
C953        C954   1.402       .  A
C953        C958   1.401       .  A
C953        F971   1.358       .  S
C954        C959   1.477       .  S
C954        C955   1.402       .  A
C955        C956   1.399       .  A
C955        F960   1.358       .  S
C956        C957   1.411       .  A
C956        F972   1.357       .  S
C957        C958   1.413       .  A
C958        F961   1.358       .  S
C959        C962   1.401       .  A
C959        C966   1.403       .  A
C962        C963   1.398       .  A
C962        F967   1.358       .  S
C963        C964   1.412       .  A
C963        F969   1.358       .  S
C964        C965   1.412       .  A
C965        C966   1.402       .  A
C965        F968   1.357       .  S
C966        F970   1.358       .  S
C973        C974   1.405       .  A
C973        C978   1.398       .  A
C973        F991   1.358       .  S
C974        C979   1.486       .  S
C974        C975   1.406       .  A
C975        C976   1.402       .  A
C975        F980   1.358       .  S
C976        C977   1.411       .  A
C976        F992   1.358       .  S
C977        C978   1.411       .  A
C978        F981   1.358       .  S
C979        C982   1.406       .  A
C979        C986   1.404       .  A
C982        C983   1.403       .  A
C982        F987   1.358       .  S
C983        C984   1.411       .  A
C983        F989   1.357       .  S
C984        C985   1.412       .  A
C985        C986   1.399       .  A
C985        F988   1.358       .  S
C986        F990   1.358       .  S
C993        C994   1.404       .  A
C993        C998   1.402       .  A
C993       F1011   1.358       .  S
C994        C999   1.480       .  S
C994        C995   1.402       .  A
C995        C996   1.399       .  A
C995       F1000   1.358       .  S
C996        C997   1.412       .  A
C996       F1012   1.358       .  S
C997        C998   1.411       .  A
C998       F1001   1.358       .  S
C999       C1002   1.402       .  A
C999       C1006   1.404       .  A
C1002      C1003   1.399       .  A
C1002      F1007   1.358       .  S
C1003      C1004   1.410       .  A
C1003      F1009   1.358       .  S
C1004      C1005   1.411       .  A
C1005      C1006   1.402       .  A
C1005      F1008   1.358       .  S
C1006      F1010   1.358       .  S
C1013      C1014   1.401       .  A
C1013      C1018   1.397       .  A
C1013      F1031   1.358       .  S
C1014      C1019   1.474       .  S
C1014      C1015   1.402       .  A
C1015      C1016   1.399       .  A
C1015      F1020   1.358       .  S
C1016      C1017   1.411       .  A
C1016      F1032   1.358       .  S
C1017      C1018   1.411       .  A
C1018      F1021   1.358       .  S
C1019      C1022   1.401       .  A
C1019      C1026   1.402       .  A
C1022      C1023   1.396       .  A
C1022      F1027   1.358       .  S
C1023      C1024   1.411       .  A
C1023      F1029   1.358       .  S
C1024      C1025   1.411       .  A
C1025      C1026   1.400       .  A
C1025      F1028   1.358       .  S
C1026      F1030   1.358       .  S
C1033      C1034   1.407       .  A
C1033      C1038   1.401       .  A
C1033      F1051   1.358       .  S
C1034      C1039   1.484       .  S
C1034      C1035   1.405       .  A
C1035      C1036   1.399       .  A
C1035      F1040   1.358       .  S
C1036      C1037   1.408       .  A
C1036      F1052   1.358       .  S
C1037      C1038   1.408       .  A
C1038      F1041   1.358       .  S
C1039      C1042   1.405       .  A
C1039      C1046   1.404       .  A
C1042      C1043   1.401       .  A
C1042      F1047   1.358       .  S
C1043      C1044   1.410       .  A
C1043      F1049   1.358       .  S
C1044      C1045   1.411       .  A
C1045      C1046   1.398       .  A
C1045      F1048   1.358       .  S
C1046      F1050   1.358       .  S
C1053      C1054   1.402       .  A
C1053      C1058   1.401       .  A
C1053      F1071   1.358       .  S
C1054      C1059   1.475       .  S
C1054      C1055   1.402       .  A
C1055      C1056   1.398       .  A
C1055      F1060   1.358       .  S
C1056      C1057   1.410       .  A
C1056      F1072   1.357       .  S
C1057      C1058   1.412       .  A
C1058      F1061   1.358       .  S
C1059      C1062   1.402       .  A
C1059      C1066   1.401       .  A
C1062      C1063   1.401       .  A
C1062      F1067   1.358       .  S
C1063      C1064   1.411       .  A
C1063      F1069   1.358       .  S
C1064      C1065   1.411       .  A
C1065      C1066   1.397       .  A
C1065      F1068   1.358       .  S
C1066      F1070   1.358       .  S
C1073      C1074   1.409       .  A
C1073      C1078   1.403       .  A
C1073      F1091   1.358       .  S
C1074      C1079   1.492       .  S
C1074      C1075   1.408       .  A
C1075      C1076   1.397       .  A
C1075      F1080   1.358       .  S
C1076      C1077   1.407       .  A
C1076      F1092   1.358       .  S
C1077      C1078   1.409       .  A
C1078      F1081   1.358       .  S
C1079      C1082   1.408       .  A
C1079      C1086   1.409       .  A
C1082      C1083   1.398       .  A
C1082      F1087   1.358       .  S
C1083      C1084   1.408       .  A
C1083      F1089   1.358       .  S
C1084      C1085   1.407       .  A
C1085      C1086   1.403       .  A
C1085      F1088   1.358       .  S
C1086      F1090   1.357       .  S
C1093      C1094   1.401       .  A
C1093      C1098   1.397       .  A
C1093      F1111   1.358       .  S
C1094      C1099   1.472       .  S
C1094      C1095   1.401       .  A
C1095      C1096   1.400       .  A
C1095      F1100   1.358       .  S
C1096      C1097   1.411       .  A
C1096      F1112   1.358       .  S
C1097      C1098   1.411       .  A
C1098      F1101   1.358       .  S
C1099      C1102   1.401       .  A
C1099      C1106   1.401       .  A
C1102      C1103   1.399       .  A
C1102      F1107   1.358       .  S
C1103      C1104   1.410       .  A
C1103      F1109   1.358       .  S
C1104      C1105   1.410       .  A
C1105      C1106   1.398       .  A
C1105      F1108   1.358       .  S
C1106      F1110   1.358       .  S
C1113      C1114   1.404       .  A
C1113      C1118   1.397       .  A
C1113      F1131   1.358       .  S
C1114      C1119   1.482       .  S
C1114      C1115   1.405       .  A
C1115      C1116   1.400       .  A
C1115      F1120   1.358       .  S
C1116      C1117   1.410       .  A
C1116      F1132   1.358       .  S
C1117      C1118   1.410       .  A
C1118      F1121   1.358       .  S
C1119      C1122   1.404       .  A
C1119      C1126   1.405       .  A
C1122      C1123   1.398       .  A
C1122      F1127   1.358       .  S
C1123      C1124   1.409       .  A
C1123      F1129   1.357       .  S
C1124      C1125   1.411       .  A
C1125      C1126   1.400       .  A
C1125      F1128   1.358       .  S
C1126      F1130   1.358       .  S
C1133      C1134   1.400       .  A
C1133      C1138   1.396       .  A
C1133      F1151   1.358       .  S
C1134      C1139   1.470       .  S
C1134      C1135   1.401       .  A
C1135      C1136   1.399       .  A
C1135      F1140   1.358       .  S
C1136      C1137   1.411       .  A
C1136      F1152   1.358       .  S
C1137      C1138   1.411       .  A
C1138      F1141   1.358       .  S
C1139      C1142   1.400       .  A
C1139      C1146   1.402       .  A
C1142      C1143   1.395       .  A
C1142      F1147   1.358       .  S
C1143      C1144   1.410       .  A
C1143      F1149   1.358       .  S
C1144      C1145   1.410       .  A
C1145      C1146   1.400       .  A
C1145      F1148   1.358       .  S
C1146      F1150   1.358       .  S
C1153      C1154   1.403       .  A
C1153      C1158   1.401       .  A
C1153      F1171   1.358       .  S
C1154      C1159   1.478       .  S
C1154      C1155   1.402       .  A
C1155      C1156   1.396       .  A
C1155      F1160   1.358       .  S
C1156      C1157   1.410       .  A
C1156      F1172   1.358       .  S
C1157      C1158   1.411       .  A
C1158      F1161   1.358       .  S
C1159      C1162   1.403       .  A
C1159      C1166   1.402       .  A
C1162      C1163   1.402       .  A
C1162      F1167   1.358       .  S
C1163      C1164   1.411       .  A
C1163      F1169   1.357       .  S
C1164      C1165   1.412       .  A
C1165      C1166   1.397       .  A
C1165      F1168   1.358       .  S
C1166      F1170   1.358       .  S
C1173      C1174   1.403       .  A
C1173      C1178   1.397       .  A
C1173      F1191   1.358       .  S
C1174      C1179   1.479       .  S
C1174      C1175   1.404       .  A
C1175      C1176   1.401       .  A
C1175      F1180   1.358       .  S
C1176      C1177   1.411       .  A
C1176      F1192   1.358       .  S
C1177      C1178   1.410       .  A
C1178      F1181   1.358       .  S
C1179      C1182   1.403       .  A
C1179      C1186   1.404       .  A
C1182      C1183   1.397       .  A
C1182      F1187   1.358       .  S
C1183      C1184   1.409       .  A
C1183      F1189   1.357       .  S
C1184      C1185   1.412       .  A
C1185      C1186   1.401       .  A
C1185      F1188   1.358   1_565  S
C1186      F1190   1.358       .  S
C1193      C1194   1.403       .  A
C1193      C1198   1.397       .  A
C1193      F1211   1.358       .  S
C1194      C1199   1.481       .  S
C1194      C1195   1.404       .  A
C1195      C1196   1.402       .  A
C1195      F1200   1.358       .  S
C1196      C1197   1.411       .  A
C1196      F1212   1.357       .  S
C1197      C1198   1.412       .  A
C1198      F1201   1.358       .  S
C1199      C1202   1.403       .  A
C1199      C1206   1.406       .  A
C1202      C1203   1.394       .  A
C1202      F1207   1.358       .  S
C1203      C1204   1.409       .  A
C1203      F1209   1.358       .  S
C1204      C1205   1.411       .  A
C1205      C1206   1.403       .  A
C1205      F1208   1.358       .  S
C1206      F1210   1.358       .  S
C1213      C1214   1.404       .  A
C1213      C1218   1.399       .  A
C1213      F1231   1.358       .  S
C1214      C1219   1.484       .  S
C1214      C1215   1.404       .  A
C1215      C1216   1.402       .  A
C1215      F1220   1.358       .  S
C1216      C1217   1.412       .  A
C1216      F1232   1.357       .  S
C1217      C1218   1.411       .  A
C1218      F1221   1.358       .  S
C1219      C1222   1.402       .  A
C1219      C1226   1.406       .  A
C1222      C1223   1.397       .  A
C1222      F1227   1.358       .  S
C1223      C1224   1.412       .  A
C1223      F1229   1.358       .  S
C1224      C1225   1.411       .  A
C1225      C1226   1.404       .  A
C1225      F1228   1.358       .  S
C1226      F1230   1.358       .  S
C1233      C1234   1.408       .  A
C1233      C1238   1.398       .  A
C1233      F1251   1.358       .  S
C1234      C1239   1.489       .  S
C1234      C1235   1.408       .  A
C1235      C1236   1.403       .  A
C1235      F1240   1.358       .  S
C1236      C1237   1.407       .  A
C1236      F1252   1.358       .  S
C1237      C1238   1.405       .  A
C1238      F1241   1.358       .  S
C1239      C1242   1.407       .  A
C1239      C1246   1.408       .  A
C1242      C1243   1.397       .  A
C1242      F1247   1.358       .  S
C1243      C1244   1.407       .  A
C1243      F1249   1.358       .  S
C1244      C1245   1.409       .  A
C1245      C1246   1.404       .  A
C1245      F1248   1.358       .  S
C1246      F1250   1.358       .  S
C1253      C1254   1.402       .  A
C1253      C1258   1.398       .  A
C1253      F1271   1.358       .  S
C1254      C1259   1.473       .  S
C1254      C1255   1.401       .  A
C1255      C1256   1.399       .  A
C1255      F1260   1.358       .  S
C1256      C1257   1.411       .  A
C1256      F1272   1.358       .  S
C1257      C1258   1.410       .  A
C1258      F1261   1.358       .  S
C1259      C1262   1.402       .  A
C1259      C1266   1.400       .  A
C1262      C1263   1.402       .  A
C1262      F1267   1.358       .  S
C1263      C1264   1.412       .  A
C1263      F1269   1.358       .  S
C1264      C1265   1.411       .  A
C1265      C1266   1.395       .  A
C1265      F1268   1.358       .  S
C1266      F1270   1.358       .  S
