geometry optimzed in LAMMPS
_audit_creation_date              2020-11-30 
_audit_creation_method            'lammps2cif' 
_symmetry_space_group_name_H-M    'P1' 
_symmetry_Int_Tables_number       1 
_symmetry_cell_setting            triclinic 
loop_ 
_symmetry_equiv_pos_as_xyz 
  x,y,z 
_cell_length_a                    37.45914846184366 
_cell_length_b                    56.810129074109206 
_cell_length_c                    27.51788190225784 
_cell_angle_alpha                 89.99140120090281 
_cell_angle_beta                  90.03434439923157 
_cell_angle_gamma                 90.05271166351334 
loop_ 
_atom_site_label 
_atom_site_type_symbol 
_atom_site_fract_x 
_atom_site_fract_y 
_atom_site_fract_z 
_atom_site_charge 
N1          N  0.80713777  0.10535797  0.18409202    -0.27500
N2          N  0.79338480  0.08454933  0.19493184    -0.35360
C3          C  0.81372992  0.06766775  0.17472283     0.00840
C4          C  0.84140320  0.07847912  0.15012772     0.06870
C5          C  0.83646629  0.10230927  0.15668558    -0.06230
H6          H  0.80890569  0.04895681  0.17800985     0.07530
H7          H  0.85318037  0.11638773  0.14311244     0.08730
Cu8        Cu  0.74830425  0.08012483  0.23803800     0.44170
Cu9        Cu  0.78693300  0.13702167  0.20879555     0.41990
Cu10       Cu  0.71751429  0.13349649  0.29813044     0.43880
N11         N  0.70526557  0.08119826  0.28565480    -0.34890
N12         N  0.69504585  0.10050162  0.30849575    -0.29140
C13         C  0.66737145  0.09534017  0.33759937    -0.05240
C14         C  0.65906645  0.07165012  0.33243953     0.06980
C15         C  0.68401907  0.06326524  0.29936455     0.00770
H16         H  0.65485179  0.10802560  0.36133402     0.08420
H17         H  0.68655799  0.04544440  0.28599417     0.07500
N18         N  0.74060919  0.16498714  0.27652425    -0.36330
N19         N  0.76568075  0.16623165  0.24291945    -0.28520
C20         C  0.77487889  0.18886705  0.23627893    -0.03750
C21         C  0.75483064  0.20265958  0.26758704     0.04860
C22         C  0.73316491  0.18685100  0.29225452     0.02950
H23         H  0.79440651  0.19473831  0.21001431     0.08050
H24         H  0.71360770  0.19089795  0.31992420     0.06890
O25         O  0.96573389  0.04092430  0.00308301    -0.73150
O26         O  0.04443957  0.00664837  0.93336180    -0.74130
O27         O  0.96866566  0.00659304  0.92831409    -0.62750
O28         O  0.04155449  0.04109094  0.00836048    -0.71160
O29         O  0.04063797  0.01215388  0.06273726    -0.70720
O30         O  0.96565643  0.97872965  0.98489640    -0.61970
O31         O  0.04111899  0.97789011  0.98764522    -0.74480
O32         O  0.96520681  0.01317813  0.05989263    -0.73260
Cu33       Cu  0.00518562  0.02483187  0.96632487     1.04560
Cu34       Cu  0.00309419  0.99450783  0.02571825     1.04330
C35         C  0.95323047  0.03249749  0.04262608     0.93040
C36         C  0.05476663  0.98660055  0.94910470     0.92180
C37         C  0.95563922  0.98730077  0.94423703     0.84330
C38         C  0.05257877  0.03195329  0.04802918     0.90600
N39         N  0.30922250  0.09893276  0.31933655    -0.27500
N40         N  0.29336294  0.07942257  0.30453235    -0.35360
C41         C  0.31210685  0.06074738  0.32039628     0.00840
C42         C  0.34156634  0.06886987  0.34596546     0.06870
C43         C  0.33856783  0.09318428  0.34476084    -0.06230
H44         H  0.30391428  0.04272942  0.31486017     0.07530
H45         H  0.35644599  0.10583198  0.36129649     0.08730
Cu46       Cu  0.24731792  0.07897682  0.26270343     0.44170
Cu47       Cu  0.29007878  0.13256520  0.30571655     0.41990
Cu48       Cu  0.21044183  0.13595182  0.23222844     0.43880
N49         N  0.20385919  0.08360665  0.21700840    -0.34890
N50         N  0.19027996  0.10442949  0.20615788    -0.29140
C51         C  0.16300162  0.10151721  0.17494707    -0.05240
C52         C  0.15963386  0.07776116  0.16505551     0.06980
C53         C  0.18569689  0.06688705  0.19275897     0.00770
H54         H  0.14722659  0.11568890  0.15984316     0.08420
H55         H  0.19116437  0.04821863  0.19494826     0.07500
N56         N  0.23611980  0.16517117  0.26065973    -0.36330
N57         N  0.26516817  0.16401332  0.28785130    -0.28520
C58         C  0.27521936  0.18597915  0.30008629    -0.03750
C59         C  0.25116078  0.20167207  0.27982783     0.04860
C60         C  0.22701316  0.18786311  0.25463502     0.02950
H61         H  0.29866222  0.19023283  0.32134216     0.08050
H62         H  0.20454215  0.19388281  0.23328119     0.06890
N63         N  0.70491389  0.90113812  0.68343638    -0.27500
N64         N  0.71566153  0.92185317  0.69981307    -0.35360
C65         C  0.69456365  0.93870906  0.68110946     0.00840
C66         C  0.66938238  0.92809618  0.65148360     0.06870
C67         C  0.67692142  0.90429318  0.65350657    -0.06230
H68         H  0.69747897  0.95732365  0.68840681     0.07530
H69         H  0.66246750  0.89023199  0.63569166     0.08730
Cu70       Cu  0.75853367  0.92648400  0.74666465     0.44170
Cu71       Cu  0.72668856  0.86935564  0.70543387     0.41990
Cu72       Cu  0.79755706  0.87314446  0.79400057     0.43880
N73         N  0.80380879  0.92594916  0.79013573    -0.34890
N74         N  0.81842918  0.90632140  0.80655128    -0.29140
C75         C  0.84786316  0.91170109  0.83221853    -0.05240
C76         C  0.85198490  0.93587557  0.83186860     0.06980
C77         C  0.82338741  0.94439843  0.80537911     0.00770
H78         H  0.86468397  0.89898984  0.85045525     0.08420
H79         H  0.81733352  0.96263608  0.79764248     0.07500
N80         N  0.77378639  0.84181895  0.77332420    -0.36330
N81         N  0.74859955  0.84032058  0.73987631    -0.28520
C82         C  0.73941680  0.81760883  0.73421872    -0.03750
C83         C  0.75988323  0.80404210  0.76556024     0.04860
C84         C  0.78114947  0.82014834  0.79009708     0.02950
H85         H  0.71932275  0.81146476  0.70897240     0.08050
H86         H  0.80017028  0.81662435  0.81872704     0.06890
O87         O  0.54340357  0.96497912  0.50414720    -0.73150
O88         O  0.46599813  0.99982531  0.43232941    -0.74130
O89         O  0.54210007  0.99862668  0.42777511    -0.62750
O90         O  0.46738207  0.96602224  0.50875449    -0.71160
O91         O  0.47102572  0.99451110  0.56337264    -0.70720
O92         O  0.54314175  0.02788791  0.48119933    -0.61970
O93         O  0.46800574  0.02796687  0.48773635    -0.74480
O94         O  0.54642932  0.99421221  0.55722017    -0.73260
Cu95       Cu  0.50463343  0.98131774  0.46632513     1.04560
Cu96       Cu  0.50729346  0.01209063  0.52421524     1.04330
C97         C  0.55737115  0.97423291  0.54200479     0.93040
C98         C  0.45454231  0.01946405  0.44891976     0.92180
C99         C  0.55409500  0.01858889  0.44168470     0.84330
C100        C  0.45721420  0.97519427  0.54888669     0.90600
N101        N  0.31771848  0.90094472  0.70512961    -0.27500
N102        N  0.30225294  0.92153121  0.71230589    -0.35360
C103        C  0.32080743  0.93817895  0.68844727     0.00840
C104        C  0.34934925  0.92757864  0.66486354     0.06870
C105        C  0.34658549  0.90392698  0.67681575    -0.06230
H106        H  0.31375000  0.95663550  0.68798052     0.07530
H107        H  0.36437895  0.88982858  0.66646805     0.08730
Cu108      Cu  0.25698010  0.92594478  0.75492161     0.44170
Cu109      Cu  0.29837158  0.86959419  0.73273346     0.41990
Cu110      Cu  0.22458776  0.87324786  0.81633667     0.43880
N111        N  0.21399371  0.92560701  0.80261306    -0.34890
N112        N  0.20305970  0.90661576  0.82598187    -0.29140
C113        C  0.17524147  0.91237691  0.85435824    -0.05240
C114        C  0.16793548  0.93620874  0.84873586     0.06980
C115        C  0.19318163  0.94390436  0.81523148     0.00770
H116        H  0.16138264  0.89995105  0.87738353     0.08420
H117        H  0.19603869  0.96129428  0.79988368     0.07500
N118        N  0.24677515  0.84162527  0.79352728    -0.36330
N119        N  0.27314694  0.84043219  0.76173802    -0.28520
C120        C  0.27998893  0.81773803  0.75169598    -0.03750
C121        C  0.25690405  0.80391979  0.77859595     0.04860
C122        C  0.23640471  0.81962892  0.80505401     0.02950
H123        H  0.30046236  0.81176621  0.72688950     0.08050
H124        H  0.21496702  0.81539682  0.82990470     0.06890
N125        N  0.80806248  0.60560747  0.87150274    -0.27500
N126        N  0.79390640  0.58472199  0.86264258    -0.35360
C127        C  0.81365363  0.56820326  0.88504823     0.00840
C128        C  0.84144795  0.57920556  0.90945193     0.06870
C129        C  0.83720774  0.60292901  0.89943770    -0.06230
H130        H  0.80831222  0.54950001  0.88342135     0.07530
H131        H  0.85461814  0.61724565  0.90967231     0.08730
Cu132      Cu  0.74936158  0.57946533  0.81880829     0.44170
Cu133      Cu  0.78818447  0.63704792  0.84493750     0.41990
Cu134      Cu  0.71385482  0.63288244  0.76424264     0.43880
N135        N  0.70590097  0.58001570  0.77177191    -0.34890
N136        N  0.69323291  0.59958484  0.75235421    -0.29140
C137        C  0.66569473  0.59425998  0.72316094    -0.05240
C138        C  0.66088636  0.57009392  0.72343110     0.06980
C139        C  0.68667193  0.56164630  0.75515254     0.00770
H140        H  0.65027090  0.60719119  0.70341070     0.08420
H141        H  0.69161256  0.54345680  0.76463790     0.07500
N142        N  0.73767413  0.66455406  0.78230445    -0.36330
N143        N  0.76454443  0.66611589  0.81313324    -0.28520
C144        C  0.77357204  0.68885348  0.81843865    -0.03750
C145        C  0.75135121  0.70244217  0.78936458     0.04860
C146        C  0.72909115  0.68623881  0.76665092     0.02950
H147        H  0.79479093  0.69496705  0.84193827     0.08050
H148        H  0.70861888  0.68966194  0.73990671     0.06890
N149        N  0.81891816  0.40611971  0.25128261    -0.27500
N150        N  0.80517385  0.42562056  0.26960720    -0.35360
C151        C  0.82341635  0.44425935  0.25255124     0.00840
C152        C  0.85015542  0.43606905  0.22242756     0.06870
C153        C  0.84672674  0.41181922  0.22269220    -0.06230
H154        H  0.81801025  0.46238090  0.26210747     0.07530
H155        H  0.86295164  0.39927353  0.20305754     0.08730
Cu156      Cu  0.76285528  0.42607747  0.31778575     0.44170
Cu157      Cu  0.79831475  0.37279634  0.26467246     0.41990
Cu158      Cu  0.72106635  0.37036014  0.34446715     0.43880
N159        N  0.71862664  0.42250634  0.36208379    -0.34890
N160        N  0.70257858  0.40225324  0.37071036    -0.29140
C161        C  0.67353351  0.40621244  0.39814165    -0.05240
C162        C  0.67103151  0.43019154  0.40739803     0.06980
C163        C  0.70059326  0.43983929  0.38430803     0.00770
H164        H  0.65519678  0.39260790  0.40973373     0.08420
H165        H  0.70918930  0.45792580  0.38370032     0.07500
N166        N  0.74415803  0.34105390  0.31269385    -0.36330
N167        N  0.77179391  0.34191735  0.28294770    -0.28520
C168        C  0.77938603  0.31997411  0.26788678    -0.03750
C169        C  0.75538962  0.30443265  0.28914929     0.04860
C170        C  0.73368074  0.31855843  0.31773542     0.02950
H171        H  0.80075589  0.31572305  0.24298247     0.08050
H172        H  0.71220178  0.31305659  0.34135213     0.06890
N173        N  0.30852173  0.59988856  0.73899479    -0.27500
N174        N  0.29419014  0.58032356  0.75614313    -0.35360
C175        C  0.31361836  0.56181762  0.74100997     0.00840
C176        C  0.34190194  0.57011157  0.71330017     0.06870
C177        C  0.33757319  0.59436758  0.71280995    -0.06230
H178        H  0.30699117  0.54369478  0.74890717     0.07530
H179        H  0.35439061  0.60718052  0.69486485     0.08730
Cu180      Cu  0.24920863  0.57970491  0.79987705     0.44170
Cu181      Cu  0.28811196  0.63332312  0.75127778     0.41990
Cu182      Cu  0.21051013  0.63639847  0.82868445     0.43880
N183        N  0.20500025  0.58406588  0.84415242    -0.34890
N184        N  0.19029499  0.60470693  0.85362347    -0.29140
C185        C  0.16202924  0.60148472  0.88298760    -0.05240
C186        C  0.15920174  0.57771696  0.89308633     0.06980
C187        C  0.18678739  0.56718466  0.86776212     0.00770
H188        H  0.14533162  0.61546941  0.89691649     0.08420
H189        H  0.19306523  0.54861332  0.86633606     0.07500
N190        N  0.23642736  0.66575041  0.80141952    -0.36330
N191        N  0.26416701  0.66471468  0.77182188    -0.28520
C192        C  0.27433219  0.68675836  0.76037086    -0.03750
C193        C  0.25228468  0.70234485  0.78466668     0.04860
C194        C  0.22853601  0.68842221  0.81022906     0.02950
H195        H  0.29665862  0.69111452  0.73711120     0.08050
H196        H  0.20694750  0.69431685  0.83330416     0.06890
O197        O  0.96631209  0.51133221  0.00123496    -0.73150
O198        O  0.04365794  0.47896672  0.07563959    -0.74130
O199        O  0.96835472  0.47874278  0.07920920    -0.62750
O200        O  0.04183733  0.51157081  0.99798730    -0.71160
O201        O  0.04220972  0.54148272  0.05006409    -0.70720
O202        O  0.96951279  0.50817312  0.13240609    -0.61970
O203        O  0.04576385  0.50871199  0.12798855    -0.74480
O204        O  0.96651631  0.54064843  0.05410424    -0.73260
Cu205      Cu  0.00499350  0.49415041  0.03671291     1.04560
Cu206      Cu  0.00604710  0.52581094  0.09305655     1.04330
C207        C  0.95388856  0.53103548  0.01570289     0.93040
C208        C  0.05714142  0.48874690  0.11314534     0.92180
C209        C  0.95747304  0.48823865  0.11854017     0.84330
C210        C  0.05342939  0.53170827  0.01121054     0.90600
O211        O  0.54396529  0.49384312  0.50047207    -0.73150
O212        O  0.46672523  0.52768997  0.57107060    -0.74130
O213        O  0.54191967  0.52707768  0.57649332    -0.62750
O214        O  0.46893457  0.49427726  0.49506030    -0.71160
O215        O  0.46600236  0.46544760  0.54910736    -0.70720
O216        O  0.53996319  0.49842434  0.63082610    -0.61970
O217        O  0.46373738  0.49919132  0.62559103    -0.74480
O218        O  0.54203432  0.46483561  0.55405381    -0.73260
Cu219      Cu  0.50545352  0.51167660  0.53403350     1.04560
Cu220      Cu  0.50282416  0.48092848  0.59186418     1.04330
C221        C  0.55541330  0.47400892  0.51570533     0.93040
C222        C  0.45272103  0.51901303  0.60933171     0.92180
C223        C  0.55279466  0.51807328  0.61639898     0.84330
C224        C  0.45600289  0.47460858  0.50889079     0.90600
N225        N  0.20330981  0.40607073  0.23235437    -0.27500
N226        N  0.21558302  0.42557888  0.25244195    -0.35360
C227        C  0.19460753  0.44367779  0.23911034     0.00840
C228        C  0.16761696  0.43513073  0.20943952     0.06870
C229        C  0.17449652  0.41123335  0.20536787    -0.06230
H230        H  0.19847064  0.46170340  0.25066983     0.07530
H231        H  0.16048351  0.39841945  0.18361087     0.08730
Cu232      Cu  0.26002378  0.42636595  0.29728472     0.44170
Cu233      Cu  0.22456732  0.37293254  0.24443721     0.41990
Cu234      Cu  0.29687121  0.36912842  0.33006912     0.43880
N235        N  0.30336694  0.42174728  0.34314096    -0.34890
N236        N  0.31607902  0.40094751  0.35611511    -0.29140
C237        C  0.34326609  0.40411013  0.38737944    -0.05240
C238        C  0.34785227  0.42800424  0.39416625     0.06980
C239        C  0.32240987  0.43869856  0.36535687     0.00770
H240        H  0.35874661  0.39008125  0.40357315     0.08420
H241        H  0.31781507  0.45739239  0.36125042     0.07500
N242        N  0.27367163  0.33993562  0.29770988    -0.36330
N243        N  0.24714223  0.34136719  0.26621943    -0.28520
C244        C  0.23709551  0.31952703  0.25326142    -0.03750
C245        C  0.25872137  0.30349011  0.27723538     0.04860
C246        C  0.28134889  0.31712672  0.30547104     0.02950
H247        H  0.21453738  0.31580268  0.23004247     0.08050
H248        H  0.30163286  0.31090199  0.33034340     0.06890
C249        C  0.40230197  0.44916226  0.50205760    -0.26530
C250        C  0.42879971  0.46253901  0.47874503    -0.14600
C251        C  0.42848871  0.46409586  0.42732916     0.36030
C252        C  0.40161360  0.45276550  0.40093417    -0.25980
C253        C  0.37500857  0.43968787  0.42436456    -0.15210
C254        C  0.37529644  0.43783473  0.47565101     0.37110
N255        N  0.34809361  0.42549078  0.50234334    -0.89470
H256        H  0.40202198  0.44792952  0.54136559     0.18230
H257        H  0.40171387  0.45397232  0.36160844     0.18220
N258        N  0.45563168  0.47631880  0.40068073    -0.88490
H259        H  0.36015909  0.41107798  0.51930577     0.35600
H260        H  0.32812781  0.41887154  0.47972406     0.40690
H261        H  0.48056865  0.46973187  0.41100638     0.40310
H262        H  0.45430900  0.49424050  0.40890151     0.35200
C263        C  0.14637873  0.47174541  0.16903559    -0.26530
C264        C  0.13865676  0.44897084  0.18617977    -0.14600
C265        C  0.10334929  0.44029975  0.18150123     0.36030
C266        C  0.07763725  0.45383315  0.15776711    -0.25980
C267        C  0.08551928  0.47629055  0.13977349    -0.15210
C268        C  0.12034616  0.48553835  0.14587883     0.37110
N269        N  0.13089019  0.50813911  0.12714919    -0.89470
H270        H  0.17319449  0.47872157  0.17252148     0.18230
H271        H  0.05111320  0.44660125  0.15323932     0.18220
N272        N  0.09208019  0.41837756  0.20215134    -0.88490
H273        H  0.13722719  0.51886826  0.15679148     0.35600
H274        H  0.11028586  0.51642521  0.10828229     0.40690
H275        H  0.10003344  0.41771468  0.23855031     0.40310
H276        H  0.10349437  0.40452871  0.18284571     0.35200
C277        C  0.11612722  0.53773516  0.98668083    -0.26530
C278        C  0.08013038  0.54375469  0.98130209    -0.14600
C279        C  0.06996821  0.56111869  0.94756855     0.36030
C280        C  0.09636676  0.57234233  0.91963786    -0.25980
C281        C  0.13246417  0.56612405  0.92440081    -0.15210
C282        C  0.14254860  0.54887577  0.95870489     0.37110
N283        N  0.17955989  0.54311726  0.96570007    -0.89470
H284        H  0.12359746  0.52445045  0.01306390     0.18230
H285        H  0.08871839  0.58560795  0.89332426     0.18220
N286        N  0.03293990  0.56716713  0.94180534    -0.88490
H287        H  0.18237317  0.53010198  0.99229784     0.35600
H288        H  0.19233387  0.55815490  0.97908209     0.40690
H289        H  0.01965949  0.55231362  0.92845044     0.40310
H290        H  0.02997366  0.58035274  0.91560098     0.35200
C291        C  0.38466462  0.56601306  0.64489699    -0.26530
C292        C  0.36992761  0.55644944  0.68738530    -0.14600
C293        C  0.38234798  0.53437604  0.70403798     0.36030
C294        C  0.40887766  0.52241840  0.67754390    -0.25980
C295        C  0.42375971  0.53205065  0.63501221    -0.15210
C296        C  0.41111726  0.55416322  0.61840788     0.37110
N297        N  0.42495349  0.56468083  0.57474338    -0.89470
H298        H  0.37497219  0.58274104  0.63145953     0.18230
H299        H  0.41832995  0.50557919  0.69076019     0.18220
N300        N  0.36879457  0.52437815  0.74832402    -0.88490
H301        H  0.41446618  0.58154985  0.56959060     0.35600
H302        H  0.41590093  0.55456057  0.54548299     0.40690
H303        H  0.37656719  0.53541300  0.77684181     0.40310
H304        H  0.38041350  0.50797241  0.75508625     0.35200
C305        C  0.62498396  0.42942460  0.47261574    -0.26530
C306        C  0.64232957  0.44215973  0.43561345    -0.14600
C307        C  0.63009937  0.46520219  0.42490567     0.36030
C308        C  0.60181093  0.47476771  0.45126665    -0.25980
C309        C  0.58469644  0.46217973  0.48853070    -0.15210
C310        C  0.59615082  0.43899070  0.49877768     0.37110
N311        N  0.57838302  0.42505794  0.53508233    -0.89470
H312        H  0.63381046  0.41175561  0.48114194     0.18230
H313        H  0.59332098  0.49248008  0.44234370     0.18220
N314        N  0.64472632  0.47930863  0.38668492    -0.88490
H315        H  0.59075634  0.40867085  0.53891327     0.35600
H316        H  0.55253818  0.42167273  0.52248862     0.40690
H317        H  0.64540021  0.46952173  0.35453866     0.40310
H318        H  0.67026482  0.48483139  0.39658833     0.35200
C319        C  0.91335999  0.44361483  0.20112415    -0.26530
C320        C  0.87741976  0.45009837  0.19677704    -0.14600
C321        C  0.86805466  0.46978304  0.16822649     0.36390
C322        C  0.89500032  0.48247029  0.14414439    -0.25980
C323        C  0.93088641  0.47581293  0.14819915    -0.15210
C324        C  0.94031577  0.45646722  0.17791845     0.37110
N325        N  0.97675191  0.44940082  0.18545710    -0.89470
H326        H  0.92062667  0.42865605  0.22349322     0.18230
H327        H  0.88795218  0.49724654  0.12113654     0.18220
N328        N  0.83122746  0.47634436  0.16261766    -0.88490
H329        H  0.98217206  0.45093220  0.22260700     0.35600
H330        H  0.99441967  0.46081564  0.16810938     0.40690
H331        H  0.81826858  0.46260375  0.14447246     0.40310
H332        H  0.82893280  0.49120568  0.14041454     0.35200
C333        C  0.88446992  0.54638090  0.91872535    -0.26530
C334        C  0.87058521  0.56753712  0.93691209    -0.14600
C335        C  0.88370331  0.57627521  0.98165634     0.36030
C336        C  0.91051813  0.56401792  0.00633855    -0.25980
C337        C  0.92480969  0.54292890  0.98802160    -0.15210
C338        C  0.91113953  0.53386898  0.94371190     0.37110
N339        N  0.92412645  0.51206111  0.92397756    -0.89470
H340        H  0.87433985  0.53948507  0.88468854     0.18230
H341        H  0.92007859  0.57112650  0.04049113     0.18220
N342        N  0.86944823  0.59693254  0.00425880    -0.88490
H343        H  0.91279778  0.50875951  0.88991251     0.35600
H344        H  0.91521614  0.49854718  0.94675728     0.40690
H345        H  0.84170509  0.59527783  0.00661460     0.40310
H346        H  0.87593384  0.61161222  0.98330697     0.35200
C347        C  0.59640135  0.55084066  0.62441709    -0.26530
C348        C  0.58066163  0.53070567  0.64504491    -0.14600
C349        C  0.59235367  0.52315477  0.69150158     0.36030
C350        C  0.61913049  0.53599870  0.71588293    -0.25980
C351        C  0.63415154  0.55636130  0.69539389    -0.15210
C352        C  0.62310229  0.56355008  0.64864263     0.37110
N353        N  0.63959909  0.58339668  0.62520916    -0.89470
H354        H  0.58823432  0.55665520  0.58861709     0.18230
H355        H  0.62763647  0.53042204  0.75170941     0.18220
N356        N  0.57700680  0.50269923  0.71410639    -0.88490
H357        H  0.62818679  0.58647646  0.59111307     0.35600
H358        H  0.66635582  0.57910796  0.61906317     0.40690
H359        H  0.55048452  0.50670375  0.72252627     0.40310
H360        H  0.58965976  0.49908874  0.74715714     0.35200
C361        C  0.25245609  0.76633276  0.82427064    -0.26530
C362        C  0.25500967  0.77792901  0.77941768    -0.14600
C363        C  0.25648255  0.76460757  0.73614662     0.36030
C364        C  0.25625994  0.73989583  0.73879281    -0.25980
C365        C  0.25376850  0.72832158  0.78366208    -0.15210
C366        C  0.25217883  0.74162797  0.82689737     0.37110
N367        N  0.25124508  0.73000498  0.87329327    -0.89470
H368        H  0.25162301  0.77659869  0.85743743     0.18230
H369        H  0.25716101  0.72960133  0.70566379     0.18220
N370        N  0.25729312  0.77620498  0.68971813    -0.88490
H371        H  0.25022009  0.74232688  0.90147809     0.35600
H372        H  0.27529361  0.72087821  0.87736717     0.40690
H373        H  0.23323452  0.78533014  0.68574645     0.40310
H374        H  0.25824451  0.76387014  0.66155124     0.35200
C375        C  0.38515389  0.96306695  0.64368825    -0.26530
C376        C  0.37694592  0.93936804  0.63445851    -0.14600
C377        C  0.39477044  0.92763604  0.59616673     0.36030
C378        C  0.42096849  0.93965830  0.56923607    -0.25980
C379        C  0.42930414  0.96334395  0.57864573    -0.15210
C380        C  0.41063682  0.97527686  0.61596702     0.37110
N381        N  0.41709927  0.99982116  0.62534112    -0.89470
H382        H  0.37159907  0.97223168  0.67280812     0.18230
H383        H  0.43480543  0.93043538  0.54040964     0.18220
N384        N  0.38575450  0.90378173  0.58379060    -0.88490
H385        H  0.40182256  0.00569587  0.65471775     0.35600
H386        H  0.40827602  0.00924086  0.59497387     0.40690
H387        H  0.35943655  0.90375613  0.57111193     0.40310
H388        H  0.40161843  0.89770907  0.55517320     0.35200
C389        C  0.72605010  0.76629489  0.76212413    -0.26530
C390        C  0.75827486  0.77804625  0.77185988    -0.14600
C391        C  0.78814685  0.76478435  0.78716095     0.36030
C392        C  0.78490854  0.74030178  0.79280362    -0.25980
C393        C  0.75267928  0.72850165  0.78316093    -0.15210
C394        C  0.72274823  0.74180276  0.76799464     0.37110
N395        N  0.68882773  0.73066309  0.75973669    -0.89470
H396        H  0.70288960  0.77633984  0.75101704     0.18230
H397        H  0.80818192  0.73034047  0.80371075     0.18220
N398        N  0.82199077  0.77598770  0.79571697    -0.88490
H399        H  0.66985408  0.74289239  0.74796216     0.35600
H400        H  0.67981097  0.72421540  0.79313684     0.40690
H401        H  0.83108925  0.78253233  0.76243906     0.40310
H402        H  0.84099093  0.76378474  0.80752477     0.35200
C403        C  0.63348565  0.93268382  0.57605467    -0.26530
C404        C  0.64026354  0.93961199  0.62410116    -0.14600
C405        C  0.61937233  0.95748077  0.64531822     0.36030
C406        C  0.59270077  0.96846911  0.61760508    -0.25980
C407        C  0.58610611  0.96188524  0.56915928    -0.15210
C408        C  0.60695793  0.94380547  0.54805567     0.37110
N409        N  0.60175656  0.93708861  0.49817523    -0.89470
H410        H  0.64967302  0.91896797  0.55987459     0.18230
H411        H  0.57661479  0.98207846  0.63431851     0.18220
N412        N  0.62474659  0.96404367  0.69525971    -0.88490
H413        H  0.61885259  0.92328970  0.48873083     0.35600
H414        H  0.60908470  0.95143885  0.47656526     0.40690
H415        H  0.61825046  0.94946605  0.71672101     0.40310
H416        H  0.60723776  0.97751912  0.70526623     0.35200
C417        C  0.25923190  0.26541798  0.32152676    -0.26530
C418        C  0.25628164  0.27742976  0.27709090    -0.14600
C419        C  0.25193382  0.26422843  0.23386996     0.36030
C420        C  0.25000862  0.23967248  0.23623197    -0.25980
C421        C  0.25255803  0.22768769  0.28067866    -0.15210
C422        C  0.25699825  0.24081591  0.32406836     0.37110
N423        N  0.25753503  0.23013874  0.37143104    -0.89470
H424        H  0.26232202  0.27529836  0.35496225     0.18230
H425        H  0.24713073  0.22979693  0.20274490     0.18220
N426        N  0.25114797  0.27501746  0.18683844    -0.88490
H427        H  0.28345887  0.23169032  0.38516237     0.35600
H428        H  0.25107108  0.21230491  0.37036478     0.40690
H429        H  0.27358377  0.28582852  0.18313263     0.40310
H430        H  0.22807723  0.28514924  0.18367147     0.35200
C431        C  0.38176471  0.06397782  0.41670372    -0.26530
C432        C  0.36943220  0.05522702  0.37208168    -0.14600
C433        C  0.38557354  0.03476378  0.35266170     0.36030
C434        C  0.41308275  0.02360747  0.37827500    -0.25980
C435        C  0.42549599  0.03233086  0.42305022    -0.15210
C436        C  0.40966725  0.05301797  0.44221079     0.37110
N437        N  0.42176566  0.06299326  0.48735354    -0.89470
H438        H  0.36968080  0.07968951  0.43174464     0.18230
H439        H  0.42502125  0.00800010  0.36256753     0.18220
N440        N  0.37586999  0.02534684  0.30623041    -0.88490
H441        H  0.40565122  0.07715216  0.49768473     0.35600
H442        H  0.44716966  0.07003514  0.48123857     0.40690
H443        H  0.37725906  0.03875289  0.28026814     0.40310
H444        H  0.34987946  0.01882660  0.30805253     0.35200
C445        C  0.86754188  0.96632984  0.89220630    -0.26530
C446        C  0.87921922  0.94967392  0.85813283    -0.14600
C447        C  0.91632171  0.94581651  0.85197622     0.36030
C448        C  0.94056800  0.95843170  0.88072399    -0.25980
C449        C  0.92877674  0.97473934  0.91531879    -0.15210
C450        C  0.89179351  0.97876362  0.92124842     0.37110
N451        N  0.87781560  0.99478981  0.95691364    -0.89470
H452        H  0.83918454  0.96920203  0.89735713     0.18230
H453        H  0.96895314  0.95555449  0.87582614     0.18220
N454        N  0.93050569  0.93003899  0.81599559    -0.88490
H455        H  0.86497612  0.00841436  0.93830396     0.35600
H456        H  0.89802862  0.00247775  0.97762248     0.40690
H457        H  0.91067369  0.92314550  0.79351746     0.40310
H458        H  0.94240403  0.91594530  0.83427093     0.35200
C459        C  0.11536005  0.03844267  0.07065108    -0.26530
C460        C  0.07941894  0.04433998  0.07727848    -0.14600
C461        C  0.06998734  0.06174398  0.11167332     0.36030
C462        C  0.09693983  0.07259901  0.13900357    -0.25980
C463        C  0.13298098  0.06649858  0.13297346    -0.15210
C464        C  0.14235073  0.04946413  0.09755106     0.37110
N465        N  0.17871833  0.04367450  0.08601074    -0.89470
H466        H  0.12258245  0.02536870  0.04368729     0.18230
H467        H  0.08954398  0.08559231  0.16602685     0.18220
N468        N  0.03355410  0.06843796  0.12075456    -0.88490
H469        H  0.18363620  0.02664112  0.09872266     0.35600
H470        H  0.19690824  0.05500643  0.10259548     0.40690
H471        H  0.01564430  0.05904011  0.09912217     0.40310
H472        H  0.03086323  0.08615376  0.11114866     0.35200
C473        C  0.11127513  0.98614504  0.90181227    -0.26530
C474        C  0.08296485  0.97354924  0.92272744    -0.14600
C475        C  0.08218012  0.94877985  0.91769958     0.36030
C476        C  0.10961602  0.93730748  0.89271808    -0.25980
C477        C  0.13869485  0.94974056  0.87292578    -0.15210
C478        C  0.13925442  0.97455417  0.87767786     0.37110
N479        N  0.16851358  0.98816505  0.85954709    -0.89470
H480        H  0.11227354  0.00513727  0.90539365     0.18230
H481        H  0.10785944  0.91839171  0.88880355     0.18220
N482        N  0.05341948  0.93477289  0.93625877    -0.88490
H483        H  0.17980490  0.99739686  0.88861823     0.35600
H484        H  0.15844697  0.00044324  0.83477178     0.40690
H485        H  0.02937594  0.94125940  0.92236430     0.40310
H486        H  0.05312299  0.93603754  0.97411906     0.35200
C487        C  0.72385247  0.24045705  0.28516812    -0.26530
C488        C  0.75554009  0.22867830  0.27306760    -0.14600
C489        C  0.78712759  0.24190015  0.26638160     0.36030
C490        C  0.78613446  0.26650423  0.27142753    -0.25980
C491        C  0.75443590  0.27835452  0.28345369    -0.15210
C492        C  0.72276968  0.26509276  0.28984194     0.37110
N493        N  0.68938605  0.27657473  0.29972215    -0.89470
H494        H  0.69946723  0.23043982  0.28973160     0.18230
H495        H  0.81062998  0.27639940  0.26704426     0.18220
N496        N  0.82035603  0.23035406  0.25579633    -0.88490
H497        H  0.66887279  0.26425548  0.30401933     0.35600
H498        H  0.68284091  0.28666102  0.26921302     0.40690
H499        H  0.82708188  0.22010667  0.28600147     0.40310
H500        H  0.84091105  0.24263448  0.25140908     0.35200
C501        C  0.57546475  0.05561155  0.40449292    -0.26530
C502        C  0.58037625  0.03144245  0.41179734    -0.14600
C503        C  0.61023712  0.02017298  0.39118443     0.36030
C504        C  0.63521994  0.03356964  0.36478432    -0.25980
C505        C  0.63078772  0.05797502  0.35814698    -0.15210
C506        C  0.59974187  0.06889949  0.37694066     0.37110
N507        N  0.59234617  0.09326220  0.36716903    -0.89470
H508        H  0.55202869  0.06408022  0.41955469     0.18230
H509        H  0.65872210  0.02493934  0.35049231     0.18220
N510        N  0.61562471  0.99535685  0.39832596    -0.88490
H511        H  0.56860745  0.09852104  0.38391650     0.35600
H512        H  0.58829405  0.09494666  0.32973128     0.40690
H513        H  0.61980558  0.99258134  0.43545959     0.40310
H514        H  0.63879455  0.98975469  0.38061292     0.35200
C515        C  0.92855619  0.04841326  0.11943076    -0.26530
C516        C  0.92488770  0.04515243  0.06909983    -0.14600
C517        C  0.89381859  0.05327291  0.04533210     0.36030
C518        C  0.86664591  0.06395317  0.07275446    -0.25980
C519        C  0.87036184  0.06706436  0.12296014    -0.15210
C520        C  0.90169286  0.05957678  0.14657104     0.37110
N521        N  0.90626067  0.06367575  0.19775152    -0.89470
H522        H  0.95258491  0.04237371  0.13749016     0.18230
H523        H  0.84246683  0.06992169  0.05497055     0.18220
N524        N  0.88935585  0.04988816  0.99392617    -0.88490
H525        H  0.93117238  0.05755647  0.20933287     0.35600
H526        H  0.88706885  0.05369652  0.21609638     0.40690
H527        H  0.90768512  0.06079307  0.97623811     0.40310
H528        H  0.86404690  0.05548719  0.98283372     0.35200
loop_ 
_geom_bond_atom_site_label_1 
_geom_bond_atom_site_label_2 
_geom_bond_distance 
_geom_bond_site_symmetry_2 
_ccdc_geom_bond_type 
N1            N2   1.323       .  A
N1            C5   1.344       .  A
N1           Cu9   2.067       .  S
N2            C3   1.346       .  A
N2           Cu8   2.079       .  S
C3            C4   1.382       .  A
C3            H6   1.082       .  S
C4            C5   1.378       .  A
C4          C519   1.469       .  S
C5            H7   1.082       .  S
Cu8          N11   2.079       .  S
Cu9          N19   2.067       .  S
Cu10         N12   2.074       .  S
Cu10         N18   2.074       .  S
N11          N12   1.321       .  A
N11          C15   1.346       .  A
N12          C13   1.343       .  A
C13          C14   1.388       .  A
C13          H16   1.080       .  S
C14          C15   1.390       .  A
C14         C505   1.492       .  S
C15          H17   1.082       .  S
N18          N19   1.320       .  A
N18          C22   1.345       .  A
N19          C20   1.343       .  A
C20          C21   1.386       .  A
C20          H23   1.081       .  S
C21          C22   1.387       .  A
C21         C488   1.486       .  S
C22          H24   1.082       .  S
O25         Cu33   2.012   1_654  S
O25          C35   1.278       .  A
O26         Cu33   2.014       .  S
O26          C36   1.279   1_545  A
O27         Cu33   2.009   1_655  S
O27          C37   1.277   1_545  A
O28         Cu33   2.011   1_554  S
O28          C38   1.277       .  A
O29         Cu34   2.004   1_545  S
O29          C38   1.276       .  A
O30         Cu34   2.007   1_656  S
O30          C37   1.276       .  A
O31         Cu34   2.006   1_556  S
O31          C36   1.277       .  A
O32         Cu34   2.007   1_645  S
O32          C35   1.278       .  A
Cu33        Cu34   2.376   1_546  S
C35         C516   1.476       .  S
C36         C474   1.482       .  S
C37         C449   1.467       .  S
C38         C460   1.467       .  S
N39          N40   1.321       .  A
N39          C43   1.343       .  A
N39         Cu47   2.075       .  S
N40          C41   1.345       .  A
N40         Cu46   2.073       .  S
C41          C42   1.387       .  A
C41          H44   1.079       .  S
C42          C43   1.386       .  A
C42         C432   1.486       .  S
C43          H45   1.082       .  S
Cu46         N49   2.073       .  S
Cu47         N57   2.075       .  S
Cu48         N50   2.071       .  S
Cu48         N56   2.071       .  S
N49          N50   1.322       .  A
N49          C53   1.345       .  A
N50          C51   1.345       .  A
C51          C52   1.382       .  A
C51          H54   1.082       .  S
C52          C53   1.384       .  A
C52         C463   1.478       .  S
C53          H55   1.082       .  S
N56          N57   1.322       .  A
N56          C60   1.344       .  A
N57          C58   1.346       .  A
C58          C59   1.385       .  A
C58          H61   1.082       .  S
C59          C60   1.383       .  A
C59         C421   1.479       .  S
C60          H62   1.082       .  S
N63          N64   1.323       .  A
N63          C67   1.345       .  A
N63         Cu71   2.072       .  S
N64          C65   1.344       .  A
N64         Cu70   2.075       .  S
C65          C66   1.384       .  A
C65          H68   1.082       .  S
C66          C67   1.383       .  A
C66         C404   1.478       .  S
C67          H69   1.082       .  S
Cu70         N73   2.075       .  S
Cu71         N81   2.072       .  S
Cu72         N74   2.069       .  S
Cu72         N80   2.069       .  S
N73          N74   1.322       .  A
N73          C77   1.346       .  A
N74          C75   1.344       .  A
C75          C76   1.382       .  A
C75          H78   1.082       .  S
C76          C77   1.383       .  A
C76         C446   1.475       .  S
C77          H79   1.082       .  S
N80          N81   1.320       .  A
N80          C84   1.344       .  A
N81          C82   1.344       .  A
C82          C83   1.388       .  A
C82          H85   1.082       .  S
C83          C84   1.388       .  A
C83         C390   1.488       .  S
C84          H86   1.081       .  S
O87         Cu95   2.014       .  S
O87          C97   1.278       .  A
O88         Cu95   2.019       .  S
O88          C98   1.280   1_565  A
O89         Cu95   2.015       .  S
O89          C99   1.278   1_565  A
O90         Cu95   2.016       .  S
O90         C100   1.280       .  A
O91         Cu96   2.001   1_565  S
O91         C100   1.277       .  A
O92         Cu96   2.002       .  S
O92          C99   1.277       .  A
O93         Cu96   1.997       .  S
O93          C98   1.276       .  A
O94         Cu96   2.002   1_565  S
O94          C97   1.278       .  A
Cu95        Cu96   2.367   1_565  S
C97         C407   1.486       .  S
C98         C435   1.492       .  S
C99         C502   1.476       .  S
C100        C379   1.489       .  S
N101        N102   1.321       .  A
N101        C105   1.344       .  A
N101       Cu109   2.067       .  S
N102        C103   1.345       .  A
N102       Cu108   2.078       .  S
C103        C104   1.389       .  A
C103        H106   1.082       .  S
C104        C105   1.387       .  A
C104        C376   1.489       .  S
C105        H107   1.081       .  S
Cu108       N111   2.078       .  S
Cu109       N119   2.067       .  S
Cu110       N112   2.078       .  S
Cu110       N118   2.077       .  S
N111        N112   1.321       .  A
N111        C115   1.346       .  A
N112        C113   1.343       .  A
C113        C114   1.390       .  A
C113        H116   1.081       .  S
C114        C115   1.391       .  A
C114        C477   1.495       .  S
C115        H117   1.080       .  S
N118        N119   1.322       .  A
N118        C122   1.346       .  A
N119        C120   1.344       .  A
C120        C121   1.383       .  A
C120        H123   1.082       .  S
C121        C122   1.385       .  A
C121        C362   1.478       .  S
C122        H124   1.082       .  S
N125        N126   1.322       .  A
N125        C129   1.344       .  A
N125       Cu133   2.069       .  S
N126        C127   1.345       .  A
N126       Cu132   2.080       .  S
C127        C128   1.387       .  A
C127        H130   1.082       .  S
C128        C129   1.385       .  A
C128        C334   1.484       .  S
C129        H131   1.079       .  S
Cu132       N135   2.079       .  S
Cu133       N143   2.068       .  S
Cu134       N136   2.069       .  S
Cu134       N142   2.068       .  S
N135        N136   1.322       .  A
N135        C139   1.347       .  A
N136        C137   1.341       .  A
C137        C138   1.384       .  A
C137        H140   1.081       .  S
C138        C139   1.387       .  A
C138        C351   1.485       .  S
C139        H141   1.082       .  S
N142        N143   1.319       .  A
N142        C146   1.344       .  A
N143        C144   1.343       .  A
C144        C145   1.389       .  A
C144        H147   1.081       .  S
C145        C146   1.390       .  A
C145        C393   1.491       .  S
C146        H148   1.080       .  S
N149        N150   1.322       .  A
N149        C153   1.345       .  A
N149       Cu157   2.077       .  S
N150        C151   1.344       .  A
N150       Cu156   2.067       .  S
C151        C152   1.382       .  A
C151        H154   1.082       .  S
C152        C153   1.384       .  A
C152        C320   1.475       .  S
C153        H155   1.082       .  S
Cu156       N159   2.067       .  S
Cu157       N167   2.077       .  S
Cu158       N160   2.071       .  S
Cu158       N166   2.071       .  S
N159        N160   1.319       .  A
N159        C163   1.342       .  A
N160        C161   1.344       .  A
C161        C162   1.389       .  A
C161        H164   1.082       .  S
C162        C163   1.389       .  A
C162        C306   1.491       .  S
C163        H165   1.077       .  S
N166        N167   1.321       .  A
N166        C170   1.344       .  A
N167        C168   1.344       .  A
C168        C169   1.389       .  A
C168        H171   1.082       .  S
C169        C170   1.388       .  A
C169        C491   1.490       .  S
C170        H172   1.081       .  S
N173        N174   1.321       .  A
N173        C177   1.343       .  A
N173       Cu181   2.076       .  S
N174        C175   1.345       .  A
N174       Cu180   2.071       .  S
C175        C176   1.388       .  A
C175        H178   1.081       .  S
C176        C177   1.388       .  A
C176        C292   1.488       .  S
C177        H179   1.082       .  S
Cu180       N183   2.072       .  S
Cu181       N191   2.076       .  S
Cu182       N184   2.070       .  S
Cu182       N190   2.070       .  S
N183        N184   1.322       .  A
N183        C187   1.344       .  A
N184        C185   1.345       .  A
C185        C186   1.382       .  A
C185        H188   1.082       .  S
C186        C187   1.383       .  A
C186        C281   1.476       .  S
C187        H189   1.082       .  S
N190        N191   1.322       .  A
N190        C194   1.344       .  A
N191        C192   1.346       .  A
C192        C193   1.384       .  A
C192        H195   1.082       .  S
C193        C194   1.382       .  A
C193        C365   1.477       .  S
C194        H196   1.082       .  S
O197       Cu205   2.002   1_655  S
O197        C207   1.276       .  A
O198       Cu205   1.997       .  S
O198        C208   1.276       .  A
O199       Cu205   2.004   1_655  S
O199        C209   1.277       .  A
O200       Cu205   2.005   1_556  S
O200        C210   1.276   1_556  A
O201       Cu206   2.007       .  S
O201        C210   1.276       .  A
O202       Cu206   2.012   1_655  S
O202        C209   1.277       .  A
O203       Cu206   2.020       .  S
O203        C208   1.279       .  A
O204       Cu206   2.013   1_655  S
O204        C207   1.280       .  A
Cu205      Cu206   2.375       .  S
C207        C337   1.491   1_554  S
C208        C267   1.472       .  S
C209        C323   1.468       .  S
C210        C278   1.465   1_554  S
O211       Cu219   1.991       .  S
O211        C221   1.277       .  A
O212       Cu219   1.994       .  S
O212        C222   1.275       .  A
O213       Cu219   1.998       .  S
O213        C223   1.278       .  A
O214       Cu219   1.999       .  S
O214        C224   1.276       .  A
O215       Cu220   2.014       .  S
O215        C224   1.279       .  A
O216       Cu220   2.017       .  S
O216        C223   1.278       .  A
O217       Cu220   2.021       .  S
O217        C222   1.280       .  A
O218       Cu220   2.020       .  S
O218        C221   1.279       .  A
Cu219      Cu220   2.365       .  S
C221        C309   1.489       .  S
C222        C295   1.492       .  S
C223        C348   1.491       .  S
C224        C250   1.481       .  S
N225        N226   1.321       .  A
N225        C229   1.342       .  A
N225       Cu233   2.071       .  S
N226        C227   1.345       .  A
N226       Cu232   2.072       .  S
C227        C228   1.387       .  A
C227        H230   1.082       .  S
C228        C229   1.387       .  A
C228        C264   1.485       .  S
C229        H231   1.078       .  S
Cu232       N235   2.073       .  S
Cu233       N243   2.072       .  S
Cu234       N236   2.073       .  S
Cu234       N242   2.073       .  S
N235        N236   1.323       .  A
N235        C239   1.345       .  A
N236        C237   1.345       .  A
C237        C238   1.381       .  A
C237        H240   1.082       .  S
C238        C239   1.381       .  A
C238        C253   1.471       .  S
C239        H241   1.082       .  S
N242        N243   1.321       .  A
N242        C246   1.345       .  A
N243        C244   1.344       .  A
C244        C245   1.386       .  A
C244        H247   1.080       .  S
C245        C246   1.386       .  A
C245        C418   1.483       .  S
C246        H248   1.082       .  S
C249        C250   1.405       .  A
C249        C254   1.401       .  A
C249        H256   1.084       .  S
C250        C251   1.418       .  A
C251        C252   1.398       .  A
C251        N258   1.433       .  S
C252        C253   1.400       .  A
C252        H257   1.084       .  S
C253        C254   1.415       .  A
C254        N255   1.438       .  S
N255        H259   1.045       .  S
N255        H260   1.043       .  S
N258        H261   1.046       .  S
N258        H262   1.044       .  S
C263        C264   1.407       .  A
C263        C268   1.404       .  A
C263        H270   1.084       .  S
C264        C265   1.417       .  A
C265        C266   1.395       .  A
C265        N272   1.432       .  S
C266        C267   1.400       .  A
C266        H271   1.082       .  S
C267        C268   1.416       .  A
C268        N269   1.439       .  S
N269        H273   1.045       .  S
N269        H274   1.043       .  S
N272        H275   1.046       .  S
N272        H276   1.042       .  S
C277        C278   1.399       .  A
C277        C282   1.404       .  A
C277        H284   1.084   1_556  S
C278        C279   1.407       .  A
C279        C280   1.405       .  A
C279        N286   1.438       .  S
C280        C281   1.404       .  A
C280        H285   1.084       .  S
C281        C282   1.412       .  A
C282        N283   1.438       .  S
N283        H287   1.046       .  S
N283        H288   1.046       .  S
N286        H289   1.046       .  S
N286        H290   1.046       .  S
C291        C292   1.402       .  A
C291        C296   1.403       .  A
C291        H298   1.083       .  S
C292        C293   1.414       .  A
C293        C294   1.408       .  A
C293        N300   1.437       .  S
C294        C295   1.407       .  A
C294        H299   1.083       .  S
C295        C296   1.418       .  A
C296        N297   1.439       .  S
N297        H301   1.046       .  S
N297        H302   1.046       .  S
N300        H303   1.046       .  S
N300        H304   1.046       .  S
C305        C306   1.408       .  A
C305        C310   1.408       .  A
C305        H312   1.083       .  S
C306        C307   1.418       .  A
C307        C308   1.395       .  A
C307        N314   1.431       .  S
C308        C309   1.405       .  A
C308        H313   1.084       .  S
C309        C310   1.414       .  A
C310        N311   1.438       .  S
N311        H315   1.046       .  S
N311        H316   1.046       .  S
N314        H317   1.045       .  S
N314        H318   1.043       .  S
C319        C320   1.401       .  A
C319        C324   1.400       .  A
C319        H326   1.084       .  S
C320        C321   1.411       .  A
C321        C322   1.406       .  A
C321        N328   1.438       .  S
C322        C323   1.401       .  A
C322        H327   1.084       .  S
C323        C324   1.415       .  A
C324        N325   1.438       .  S
N325        H329   1.046       .  S
N325        H330   1.042       .  S
N328        H331   1.046       .  S
N328        H332   1.046       .  S
C333        C334   1.403       .  A
C333        C338   1.406       .  A
C333        H340   1.084       .  S
C334        C335   1.415       .  A
C335        C336   1.398   1_556  A
C335        N342   1.432   1_556  S
C336        C337   1.406   1_554  A
C336        H341   1.084       .  S
C337        C338   1.419       .  A
C338        N339   1.438       .  S
N339        H343   1.046       .  S
N339        H344   1.046       .  S
N342        H345   1.045       .  S
N342        H346   1.042   1_554  S
C347        C348   1.406       .  A
C347        C352   1.401       .  A
C347        H354   1.083       .  S
C348        C349   1.418       .  A
C349        C350   1.409       .  A
C349        N356   1.438       .  S
C350        C351   1.404       .  A
C350        H355   1.083       .  S
C351        C352   1.412       .  A
C352        N353   1.438       .  S
N353        H357   1.046       .  S
N353        H358   1.046       .  S
N356        H359   1.046       .  S
N356        H360   1.046       .  S
C361        C362   1.402       .  A
C361        C366   1.405       .  A
C361        H368   1.084       .  S
C362        C363   1.412       .  A
C363        C364   1.406       .  A
C363        N370   1.438       .  S
C364        C365   1.402       .  A
C364        H369   1.084       .  S
C365        C366   1.411       .  A
C366        N367   1.438       .  S
N367        H371   1.046       .  S
N367        H372   1.046       .  S
N370        H373   1.046       .  S
N370        H374   1.046       .  S
C375        C376   1.404       .  A
C375        C380   1.405       .  A
C375        H382   1.083       .  S
C376        C377   1.415       .  A
C377        C378   1.406       .  A
C377        N384   1.437       .  S
C378        C379   1.405       .  A
C378        H383   1.083       .  S
C379        C380   1.416       .  A
C380        N381   1.438       .  S
N381        H385   1.046   1_565  S
N381        H386   1.046   1_565  S
N384        H387   1.046       .  S
N384        H388   1.046       .  S
C389        C390   1.405       .  A
C389        C394   1.406       .  A
C389        H396   1.083       .  S
C390        C391   1.413       .  A
C391        C392   1.405       .  A
C391        N398   1.437       .  S
C392        C393   1.406       .  A
C392        H397   1.082       .  S
C393        C394   1.415       .  A
C394        N395   1.437       .  S
N395        H399   1.046       .  S
N395        H400   1.045       .  S
N398        H401   1.045       .  S
N398        H402   1.046       .  S
C403        C404   1.402       .  A
C403        C408   1.407       .  A
C403        H410   1.084       .  S
C404        C405   1.409       .  A
C405        C406   1.403       .  A
C405        N412   1.438       .  S
C406        C407   1.406       .  A
C406        H411   1.083       .  S
C407        C408   1.416       .  A
C408        N409   1.438       .  S
N409        H413   1.046       .  S
N409        H414   1.046       .  S
N412        H415   1.046       .  S
N412        H416   1.046       .  S
C417        C418   1.405       .  A
C417        C422   1.402       .  A
C417        H424   1.084       .  S
C418        C419   1.415       .  A
C419        C420   1.398       .  A
C419        N426   1.432       .  S
C420        C421   1.403       .  A
C420        H425   1.084       .  S
C421        C422   1.418       .  A
C422        N423   1.438       .  S
N423        H427   1.045       .  S
N423        H428   1.042       .  S
N426        H429   1.045       .  S
N426        H430   1.042       .  S
C431        C432   1.403       .  A
C431        C436   1.405       .  A
C431        H438   1.084       .  S
C432        C433   1.416       .  A
C433        C434   1.400       .  A
C433        N440   1.432       .  S
C434        C435   1.407       .  A
C434        H439   1.084       .  S
C435        C436   1.419       .  A
C436        N437   1.438       .  S
N437        H441   1.046       .  S
N437        H442   1.046       .  S
N440        H443   1.045       .  S
N440        H444   1.043       .  S
C445        C446   1.403       .  A
C445        C450   1.400       .  A
C445        H452   1.084       .  S
C446        C447   1.417       .  A
C447        C448   1.401       .  A
C447        N454   1.438       .  S
C448        C449   1.400       .  A
C448        H453   1.084       .  S
C449        C450   1.414       .  A
C450        N451   1.438       .  S
N451        H455   1.045   1_565  S
N451        H456   1.043   1_565  S
N454        H457   1.043       .  S
N454        H458   1.045       .  S
C459        C460   1.400       .  A
C459        C464   1.400       .  A
C459        H466   1.085       .  S
C460        C461   1.414       .  A
C461        C462   1.401       .  A
C461        N468   1.439       .  S
C462        C463   1.404       .  A
C462        H467   1.084       .  S
C463        C464   1.418       .  A
C464        N465   1.437       .  S
N465        H469   1.045       .  S
N465        H470   1.042       .  S
N468        H471   1.043       .  S
N468        H472   1.045       .  S
C473        C474   1.403       .  A
C473        C478   1.405       .  A
C473        H480   1.084   1_565  S
C474        C475   1.414       .  A
C475        C476   1.398       .  A
C475        N482   1.433       .  S
C476        C477   1.408       .  A
C476        H481   1.082       .  S
C477        C478   1.416       .  A
C478        N479   1.431       .  S
N479        H483   1.046       .  S
N479        H484   1.046   1_565  S
N482        H485   1.046       .  S
N482        H486   1.044       .  S
C487        C488   1.403       .  A
C487        C492   1.406       .  A
C487        H494   1.083       .  S
C488        C489   1.413       .  A
C489        C490   1.405       .  A
C489        N496   1.437       .  S
C490        C491   1.405       .  A
C490        H495   1.082       .  S
C491        C492   1.416       .  A
C492        N493   1.437       .  S
N493        H497   1.046       .  S
N493        H498   1.046       .  S
N496        H499   1.046       .  S
N496        H500   1.046       .  S
C501        C502   1.400       .  A
C501        C506   1.404       .  A
C501        H508   1.084       .  S
C502        C503   1.409       .  A
C503        C504   1.408       .  A
C503        N510   1.438   1_545  S
C504        C505   1.408       .  A
C504        H509   1.082       .  S
C505        C506   1.417       .  A
C506        N507   1.437       .  S
N507        H511   1.046       .  S
N507        H512   1.046       .  S
N510        H513   1.046       .  S
N510        H514   1.046       .  S
C515        C516   1.404       .  A
C515        C520   1.405       .  A
C515        H522   1.084       .  S
C516        C517   1.412       .  A
C517        C518   1.406       .  A
C517        N524   1.437   1_554  S
C518        C519   1.400       .  A
C518        H523   1.084       .  S
C519        C520   1.407       .  A
C520        N521   1.438       .  S
N521        H525   1.046       .  S
N521        H526   1.045       .  S
N524        H527   1.045       .  S
N524        H528   1.046       .  S
