geometry optimzed in LAMMPS
_audit_creation_date              2020-11-30 
_audit_creation_method            'lammps2cif' 
_symmetry_space_group_name_H-M    'P1' 
_symmetry_Int_Tables_number       1 
_symmetry_cell_setting            triclinic 
loop_ 
_symmetry_equiv_pos_as_xyz 
  x,y,z 
_cell_length_a                    42.932780943723074 
_cell_length_b                    43.33070279535693 
_cell_length_c                    42.41923786039225 
_cell_angle_alpha                 92.20437167162385 
_cell_angle_beta                  84.65060113241671 
_cell_angle_gamma                 89.25684668343247 
loop_ 
_atom_site_label 
_atom_site_type_symbol 
_atom_site_fract_x 
_atom_site_fract_y 
_atom_site_fract_z 
_atom_site_charge 
C1          C  0.47221794  0.00029278  0.77146432     0.02900
C2          C  0.45511731  0.47209750  0.77211545    -0.13250
C3          C  0.42306378  0.47207508  0.76771180     0.00400
C4          C  0.40849995  0.49958506  0.76141905    -0.11780
C5          C  0.42239391  0.02787683  0.76587749     0.02890
C6          C  0.45448415  0.02845609  0.77027744    -0.11200
H7          H  0.46584509  0.45021253  0.77624636     0.08490
H8          H  0.38443179  0.49910005  0.75572805     0.06020
H9          H  0.46481260  0.05082236  0.77252295     0.05860
In10       In  0.11864683  0.10015021  0.77639374     1.36870
C11         C  0.10675326  0.11722126  0.83721684     0.77350
O12         O  0.06815226  0.08325208  0.77481941    -0.61090
O13         O  0.10712537  0.05232184  0.76735945    -0.52010
C14         C  0.11357653  0.12381607  0.72061461     0.70020
O15         O  0.10143652  0.13762201  0.74572276    -0.46860
C16         C  0.17739998  0.08052778  0.77932575     0.74720
O17         O  0.11935261  0.13569454  0.81758803    -0.58720
O18         O  0.15396927  0.06366180  0.77748009    -0.48810
O19         O  0.09929629  0.09183092  0.82511450    -0.55150
C20         C  0.07776951  0.05563507  0.76937553     0.84900
O21         O  0.12953562  0.10012292  0.72468994    -0.57050
O22         O  0.17127709  0.10912830  0.77887988    -0.60340
C23         C  0.26640122  0.43508674  0.78328614     0.02900
C24         C  0.26497026  0.46750011  0.78609359    -0.13250
C25         C  0.23677387  0.48379571  0.79336370     0.00400
C26         C  0.20930751  0.46675729  0.79706483    -0.11780
C27         C  0.20933821  0.43488417  0.78968123     0.02890
C28         C  0.23821489  0.41853702  0.78418890    -0.11200
H29         H  0.28632074  0.48011837  0.78181647     0.08490
H30         H  0.18725437  0.47841958  0.80421111     0.06020
H31         H  0.23872051  0.39376534  0.77968663     0.05860
C32         C  0.20843135  0.06636653  0.78308868     0.02900
C33         C  0.20912267  0.03419767  0.78599918    -0.13250
C34         C  0.23590052  0.01840199  0.79335618     0.00400
C35         C  0.26269844  0.03567177  0.79720781    -0.11780
C36         C  0.26435719  0.06688230  0.78946177     0.02890
C37         C  0.23661295  0.08284099  0.78370580    -0.11200
H38         H  0.18845778  0.02138081  0.78179174     0.08490
H39         H  0.28323828  0.02450081  0.80473102     0.06020
H40         H  0.23708716  0.10723084  0.77906136     0.05860
In41       In  0.12146408  0.40107903  0.77687688     1.36870
C42         C  0.11292860  0.38670474  0.83695859     0.77350
O43         O  0.17344298  0.39253885  0.78220211    -0.61090
O44         O  0.15493420  0.43829062  0.78274417    -0.52010
C45         C  0.12305662  0.37392068  0.71989712     0.70020
O46         O  0.10250194  0.36677948  0.74167097    -0.46860
C47         C  0.07937863  0.44462884  0.76794792     0.74720
O48         O  0.12064317  0.36599249  0.81561899    -0.58720
O49         O  0.10866209  0.44705367  0.76291781    -0.48810
O50         O  0.10609528  0.41239260  0.82645129    -0.55150
C51         C  0.17857830  0.42115609  0.78499722     0.84900
O52         O  0.14342181  0.39210303  0.72856891    -0.57050
O53         O  0.07057598  0.41829812  0.77668601    -0.60340
In54       In  0.35798554  0.40291342  0.77643786     1.36870
C55         C  0.37143127  0.38195660  0.71763544     0.77350
O56         O  0.30507261  0.39244464  0.78013329    -0.61090
O57         O  0.32165549  0.43802638  0.77566365    -0.52010
C58         C  0.35903267  0.39004193  0.83690030     0.70020
O59         O  0.35862931  0.36833080  0.81594024    -0.46860
C60         C  0.40189863  0.44542654  0.77171617     0.74720
O61         O  0.37773535  0.36554305  0.74045297    -0.58720
O62         O  0.37276630  0.45015728  0.77403940    -0.48810
O63         O  0.35615504  0.40634970  0.72548429    -0.55150
C64         C  0.29827162  0.42091903  0.77915156     0.84900
O65         O  0.35987817  0.41659255  0.82606088    -0.57050
O66         O  0.40990723  0.41731687  0.77303868    -0.60340
In67       In  0.35567261  0.09802582  0.77716196     1.36870
C68         C  0.36721358  0.11861794  0.71955237     0.77350
O69         O  0.40749912  0.08261499  0.77554811    -0.61090
O70         O  0.37185037  0.05102584  0.76607467    -0.52010
C71         C  0.35636237  0.11583071  0.83729997     0.70020
O72         O  0.35090973  0.13533570  0.81685759    -0.46860
C73         C  0.29620657  0.07996022  0.78493505     0.74720
O74         O  0.37391974  0.13477661  0.74350255    -0.58720
O75         O  0.31995780  0.06258625  0.78468771    -0.48810
O76         O  0.35270556  0.09429532  0.72578667    -0.55150
C77         C  0.40056825  0.05497810  0.76873580     0.84900
O78         O  0.36434204  0.08937881  0.82601469    -0.57050
O79         O  0.30251227  0.10793598  0.78026276    -0.60340
C80         C  0.00785165  0.00024715  0.77119588     0.02900
C81         C  0.02491007  0.02842475  0.77103091    -0.13250
C82         C  0.05781600  0.02809636  0.76689521     0.00400
C83         C  0.07371334  0.99996514  0.76244154    -0.11780
C84         C  0.05863708  0.47205432  0.76591573     0.02890
C85         C  0.02571600  0.47198479  0.76988672    -0.11200
H86         H  0.01342318  0.05068825  0.77409835     0.08490
H87         H  0.09898240  0.99982792  0.75845812     0.06020
H88         H  0.01484793  0.44979501  0.77158492     0.05860
C89         C  0.48953218  0.23047392  0.02404531     0.02900
C90         C  0.01671242  0.21281769  0.02991117    -0.13250
C91         C  0.01647658  0.18032166  0.02879275     0.00400
C92         C  0.48974542  0.16528952  0.02102571    -0.11780
C93         C  0.46246003  0.18110223  0.01627795     0.02890
C94         C  0.46207882  0.21363085  0.01791561    -0.11200
H95         H  0.03794027  0.22352503  0.03596276     0.08490
H96         H  0.48979952  0.14024170  0.01976759     0.06020
H97         H  0.44049514  0.22502471  0.01374557     0.05860
C98         C  0.42064134  0.47328675  0.03911963     0.02900
C99         C  0.45062238  0.47480261  0.04951363    -0.13250
C100        C  0.46865900  0.50120536  0.04582027     0.00400
C101        C  0.45433415  0.02787779  0.03594523    -0.11780
C102        C  0.42269454  0.02856455  0.03013478     0.02890
C103        C  0.40569441  0.00077349  0.03097868    -0.11200
H104        H  0.46061048  0.45431330  0.05867192     0.08490
H105        H  0.46787799  0.04847648  0.03230285     0.06020
H106        H  0.38205127  0.00030141  0.02408120     0.05860
C107        C  0.05265130  0.02685918  0.04739233     0.02900
C108        C  0.01992413  0.02656404  0.05334373    -0.13250
C109        C  0.00311711  0.99981283  0.04824181     0.00400
C110        C  0.01986264  0.47210897  0.04175502    -0.11780
C111        C  0.05259694  0.47059890  0.04071131     0.02890
C112        C  0.06938995  0.99844585  0.04209098    -0.11200
H113        H  0.00729717  0.04790085  0.06002104     0.08490
H114        H  0.00744493  0.45130849  0.03652042     0.06020
H115        H  0.09469647  0.99805163  0.03877886     0.05860
In116      In  0.39194854  0.11787888  0.02104687     1.36870
C117        C  0.38127935  0.12331702  0.08339255     0.77350
O118        O  0.38102443  0.06725516  0.02980563    -0.61090
O119        O  0.42729222  0.08057687  0.01393393    -0.52010
C120        C  0.36186967  0.12141669  0.96979735     0.70020
O121        O  0.35478485  0.13957302  0.99352324    -0.46860
C122        C  0.43492150  0.16135291  0.01315002     0.74720
O123        O  0.35861666  0.12416257  0.06614314    -0.58720
O124        O  0.43841074  0.13381377  0.00249161    -0.48810
O125        O  0.40770498  0.11927791  0.06839874    -0.55150
C126        C  0.40948717  0.05918897  0.02359226     0.84900
O127        O  0.38211257  0.10111388  0.97363533    -0.57050
O128        O  0.40753277  0.16821218  0.02491266    -0.60340
In129      In  0.08593192  0.11535352  0.03611986     1.36870
C130        C  0.11206061  0.12030601  0.08981598     0.77350
O131        O  0.07161243  0.16623844  0.03092210    -0.61090
O132        O  0.03768157  0.13234911  0.04251739    -0.52010
C133        C  0.09971764  0.11729323  0.97379293     0.70020
O134        O  0.11674431  0.13061773  0.99289355    -0.46860
C135        C  0.06679112  0.05776038  0.04406397     0.74720
O136        O  0.12884883  0.11591369  0.06379702    -0.58720
O137        O  0.04979127  0.08175866  0.04838178    -0.48810
O138        O  0.08351985  0.12516280  0.08745743    -0.55150
C139        C  0.04291308  0.15978010  0.03502639     0.84900
O140        O  0.07864843  0.10105368  0.98707355    -0.57050
O141        O  0.09519117  0.06288482  0.03529428    -0.60340
In142      In  0.08642155  0.38039794  0.03343950     1.36870
C143        C  0.10974656  0.37903346  0.08894938     0.77350
O144        O  0.09590803  0.43268518  0.03480317    -0.61090
O145        O  0.04960041  0.41579398  0.03838123    -0.52010
C146        C  0.10543321  0.38102481  0.97258562     0.70020
O147        O  0.12291643  0.36959051  0.99181748    -0.46860
C148        C  0.04516047  0.33506793  0.03103729     0.74720
O149        O  0.12683145  0.37235498  0.06354411    -0.58720
O150        O  0.03948413  0.36212341  0.04199235    -0.48810
O151        O  0.08158740  0.38467987  0.08547115    -0.55150
C152        C  0.06689114  0.43911118  0.03775714     0.84900
O153        O  0.07943335  0.39135559  0.98475786    -0.57050
O154        O  0.07387393  0.32912786  0.02385780    -0.60340
In155      In  0.39309015  0.38284484  0.02635404     1.36870
C156        C  0.37186575  0.38276141  0.97013992     0.77350
O157        O  0.38042333  0.43465435  0.03258075    -0.61090
O158        O  0.42774245  0.41912511  0.02981290    -0.52010
C159        C  0.37727168  0.38220468  0.08790195     0.70020
O160        O  0.35627793  0.38106657  0.06863277    -0.46860
C161        C  0.43557007  0.33725722  0.01821224     0.74720
O162        O  0.35593626  0.37050197  0.99300780    -0.58720
O163        O  0.43990547  0.36505539  0.01155204    -0.48810
O164        O  0.39753775  0.39369375  0.97663441    -0.55150
C165        C  0.40879514  0.44175380  0.03367868     0.84900
O166        O  0.40481257  0.38080403  0.07489676    -0.57050
O167        O  0.40739722  0.33119932  0.02706781    -0.60340
C168        C  0.48994770  0.26577997  0.02385351     0.02900
C169        C  0.01841000  0.28239323  0.02601058    -0.13250
C170        C  0.01867772  0.31475793  0.02479558     0.00400
C171        C  0.49164411  0.33033642  0.01873313    -0.11780
C172        C  0.46299950  0.31591957  0.01850493     0.02890
C173        C  0.46190996  0.28366413  0.02158410    -0.11200
H174        H  0.04030017  0.27106167  0.02906054     0.08490
H175        H  0.49274704  0.35510302  0.01611130     0.06020
H176        H  0.43923022  0.27326374  0.02225317     0.05860
C177        C  0.23951115  0.01736543  0.52904932     0.02900
C178        C  0.26771091  0.03400052  0.53285899    -0.13250
C179        C  0.26732935  0.06646201  0.53593246     0.00400
C180        C  0.23961364  0.08246806  0.53321371    -0.11780
C181        C  0.21198442  0.06779603  0.52805288     0.02890
C182        C  0.21150168  0.03529715  0.52681471    -0.11200
H183        H  0.28996107  0.02255803  0.53375817     0.08490
H184        H  0.23960595  0.10751086  0.53480044     0.06020
H185        H  0.18936214  0.02486617  0.52368936     0.05860
In186      In  0.14249490  0.13435375  0.52648148     1.36870
C187        C  0.12237811  0.13414350  0.58724309     0.77350
O188        O  0.15661349  0.08342577  0.53269205    -0.61090
O189        O  0.18999892  0.11595359  0.51588945    -0.52010
C190        C  0.12330536  0.12430958  0.46955727     0.70020
O191        O  0.10494742  0.12074467  0.49430744    -0.46860
C192        C  0.15845829  0.19357306  0.53048279     0.74720
O193        O  0.10360401  0.12949703  0.56615924    -0.58720
O194        O  0.17709113  0.17074144  0.52802659    -0.48810
O195        O  0.15038010  0.13779564  0.57676588    -0.55150
C196        C  0.18506025  0.08887518  0.52469604     0.84900
O197        O  0.14972908  0.13450884  0.47449407    -0.57050
O198        O  0.13013199  0.18657117  0.52874563    -0.60340
C199        C  0.17069070  0.22507845  0.53558940     0.02900
C200        C  0.20077754  0.22633768  0.54584850    -0.13250
C201        C  0.21874291  0.25285088  0.54292859     0.00400
C202        C  0.20439196  0.27977153  0.53382888    -0.11780
C203        C  0.17269459  0.28067757  0.52827496     0.02890
C204        C  0.15568815  0.25285331  0.52834747    -0.11200
H205        H  0.21084971  0.20569830  0.55461167     0.08490
H206        H  0.21796843  0.30041921  0.53072910     0.06020
H207        H  0.13189783  0.25266966  0.52186074     0.05860
C208        C  0.30251558  0.27838057  0.54741631     0.02900
C209        C  0.26972343  0.27811348  0.55221639    -0.13250
C210        C  0.25310724  0.25149724  0.54577944     0.00400
C211        C  0.26997376  0.22393954  0.53877946    -0.11780
C212        C  0.30257572  0.22230818  0.53895397     0.02890
C213        C  0.31930717  0.25003528  0.54171247    -0.11200
H214        H  0.25702913  0.29940147  0.55895465     0.08490
H215        H  0.25778655  0.20329506  0.53243568     0.06020
H216        H  0.34463166  0.24959768  0.53947477     0.05860
In217      In  0.33550388  0.13194353  0.53541989     1.36870
C218        C  0.36162738  0.13266174  0.58941415     0.77350
O219        O  0.34557399  0.18401584  0.53280950    -0.61090
O220        O  0.29914566  0.16769808  0.53967508    -0.52010
C221        C  0.34660288  0.12677335  0.47304024     0.70020
O222        O  0.36851426  0.12223738  0.49065469    -0.46860
C223        C  0.29463052  0.08638349  0.54010124     0.74720
O224        O  0.37719542  0.12331160  0.56380656    -0.58720
O225        O  0.29016656  0.11337128  0.55182030    -0.48810
O226        O  0.33374492  0.14022463  0.58672041    -0.55150
C227        C  0.31664342  0.19075046  0.53686719     0.84900
O228        O  0.32072622  0.13438496  0.48780243    -0.57050
O229        O  0.32255928  0.08052488  0.52915828    -0.60340
In230      In  0.33640825  0.36656293  0.53625250     1.36870
C231        C  0.36649637  0.37122607  0.58739018     0.77350
O232        O  0.32185898  0.41733992  0.53109347    -0.61090
O233        O  0.28800788  0.38346882  0.54325097    -0.52010
C234        C  0.34878085  0.36809445  0.47390611     0.70020
O235        O  0.36622818  0.38160989  0.49244761    -0.46860
C236        C  0.31690625  0.30920571  0.54519954     0.74720
O237        O  0.38093707  0.36343650  0.56086561    -0.58720
O238        O  0.30076980  0.33337982  0.55255337    -0.48810
O239        O  0.33855245  0.37980442  0.58656720    -0.55150
C240        C  0.29316730  0.41090938  0.53562124     0.84900
O241        O  0.32772445  0.35224024  0.48774590    -0.57050
O242        O  0.34454722  0.31411669  0.53369863    -0.60340
In243      In  0.14072131  0.37027653  0.52208269     1.36870
C244        C  0.12706847  0.37164869  0.58451064     0.77350
O245        O  0.13062661  0.31885461  0.52753871    -0.61090
O246        O  0.17707122  0.33384771  0.51619513    -0.52010
C247        C  0.11267579  0.37605067  0.46978166     0.70020
O248        O  0.10282708  0.39127315  0.49491339    -0.46860
C249        C  0.18438817  0.41316448  0.51584156     0.74720
O250        O  0.10570401  0.36809455  0.56597825    -0.58720
O251        O  0.18789408  0.38539272  0.50593293    -0.48810
O252        O  0.15353637  0.37688458  0.57069577    -0.55150
C253        C  0.15935955  0.31158512  0.52309204     0.84900
O254        O  0.13488741  0.35755611  0.47252534    -0.57050
O255        O  0.15666772  0.42057033  0.52641411    -0.60340
C256        C  0.23940565  0.48197865  0.52720394     0.02900
C257        C  0.21173661  0.46527306  0.52146782    -0.13250
C258        C  0.21213696  0.43276794  0.51883558     0.00400
C259        C  0.23973657  0.41679947  0.52226426    -0.11780
C260        C  0.26663726  0.43161236  0.52988844     0.02890
C261        C  0.26684197  0.46410945  0.53180057    -0.11200
H262        H  0.18982043  0.47668650  0.51876797     0.08490
H263        H  0.23994835  0.39177213  0.52025499     0.06020
H264        H  0.28821001  0.47461386  0.53768852     0.05860
C265        C  0.22203228  0.24918116  0.27415769     0.02900
C266        C  0.20514056  0.22106810  0.27840211    -0.13250
C267        C  0.17234552  0.22086756  0.27914413     0.00400
C268        C  0.15640477  0.24809685  0.27468299    -0.11780
C269        C  0.17118785  0.27619437  0.27183791     0.02890
C270        C  0.20401308  0.27693896  0.27148846    -0.11200
H271        H  0.21658324  0.19932789  0.28157680     0.08490
H272        H  0.13123572  0.24743912  0.27423337     0.06020
H273        H  0.21476221  0.29907706  0.26853282     0.05860
C274        C  0.01656932  0.18401424  0.28581300     0.02900
C275        C  0.48845900  0.16725966  0.28802194    -0.13250
C276        C  0.45961549  0.18335754  0.29530303     0.00400
C277        C  0.45974660  0.21513322  0.30313930    -0.11780
C278        C  0.48686370  0.23235469  0.29776733     0.02890
C279        C  0.01494873  0.21638794  0.28867403    -0.11200
H280        H  0.48895998  0.14250953  0.28337584     0.08490
H281        H  0.43796795  0.22677687  0.31150841     0.06020
H282        H  0.03602272  0.22921190  0.28327978     0.05860
C283        C  0.45757306  0.31430676  0.28686143     0.02900
C284        C  0.45832103  0.28231295  0.29080391    -0.13250
C285        C  0.48547578  0.26685720  0.29778700     0.00400
C286        C  0.01228704  0.28425412  0.30086611    -0.11780
C287        C  0.01370468  0.31524325  0.29246592     0.02890
C288        C  0.48577625  0.33089998  0.28674182    -0.11200
H289        H  0.43750299  0.26934150  0.28752636     0.08490
H290        H  0.03304601  0.27318794  0.30807594     0.06020
H291        H  0.48616367  0.35509872  0.28126461     0.05860
In292      In  0.10788554  0.15153141  0.28161725     1.36870
C293        C  0.10671295  0.12925494  0.33901912     0.77350
O294        O  0.15979056  0.16588879  0.27634426    -0.61090
O295        O  0.12361187  0.19768046  0.29305854    -0.52010
C296        C  0.11976081  0.13362148  0.22134630     0.70020
O297        O  0.11847522  0.11405339  0.24295056    -0.46860
C298        C  0.04848396  0.16996191  0.28149214     0.74720
O299        O  0.11857471  0.11355166  0.31488784    -0.58720
O300        O  0.07198076  0.18703433  0.27849615    -0.48810
O301        O  0.09619251  0.15534074  0.33318864    -0.55150
C302        C  0.15212208  0.19363547  0.28382392     0.84900
O303        O  0.11382174  0.16101851  0.23096152    -0.57050
O304        O  0.05514448  0.14149860  0.28256379    -0.60340
In305      In  0.37165948  0.15138713  0.28008034     1.36870
C306        C  0.35648983  0.13151592  0.33734688     0.77350
O307        O  0.42377429  0.14177437  0.28424933    -0.61090
O308        O  0.40455293  0.18705247  0.29254902    -0.52010
C309        C  0.37518546  0.13152959  0.22016465     0.70020
O310        O  0.35740893  0.11839785  0.24095399    -0.46860
C311        C  0.32972265  0.19501463  0.27121592     0.74720
O312        O  0.36883955  0.11317923  0.31555894    -0.58720
O313        O  0.35856057  0.19912434  0.27299719    -0.48810
O314        O  0.35055653  0.15816856  0.32873248    -0.55150
C315        C  0.42862848  0.16987260  0.29112673     0.84900
O316        O  0.39256882  0.15157268  0.23113238    -0.57050
O317        O  0.32128200  0.16735923  0.27439519    -0.60340
In318      In  0.36877333  0.34875342  0.27684129     1.36870
C319        C  0.36922849  0.37667562  0.22255833     0.77350
O320        O  0.42038490  0.35695845  0.28372984    -0.61090
O321        O  0.40379326  0.31143159  0.27709012    -0.52010
C322        C  0.35676422  0.36486433  0.33753167     0.70020
O323        O  0.36439708  0.38502674  0.31746969    -0.46860
C324        C  0.32757035  0.30508937  0.26627802     0.74720
O325        O  0.34776134  0.38251195  0.24454154    -0.58720
O326        O  0.35676521  0.30267192  0.25956106    -0.48810
O327        O  0.39065992  0.35908727  0.22975316    -0.55150
C328        C  0.42672290  0.32830456  0.28207430     0.84900
O329        O  0.35479254  0.33791551  0.32605008    -0.57050
O330        O  0.31831498  0.33157622  0.27696765    -0.60340
In331      In  0.10483785  0.34640609  0.27786112     1.36870
C332        C  0.10487922  0.36485850  0.33784563     0.77350
O333        O  0.05165969  0.35620828  0.28205714    -0.61090
O334        O  0.06932435  0.31087577  0.28619004    -0.52010
C335        C  0.11526440  0.36594796  0.21976878     0.70020
O336        O  0.12290818  0.38233956  0.24318182    -0.46860
C337        C  0.14981352  0.30339832  0.27132070     0.74720
O338        O  0.09907070  0.38405936  0.31721697    -0.58720
O339        O  0.12144357  0.29939365  0.26692995    -0.48810
O340        O  0.11435489  0.33879396  0.32674014    -0.55150
C341        C  0.04550135  0.32825561  0.28698078     0.84900
O342        O  0.10050886  0.34197064  0.22681195    -0.57050
O343        O  0.15655408  0.33119749  0.27762246    -0.60340
C344        C  0.25781469  0.24941780  0.27170937     0.02900
C345        C  0.27592273  0.22138373  0.27119406    -0.13250
C346        C  0.30879962  0.22169411  0.26672084     0.00400
C347        C  0.32358876  0.24936338  0.26062025    -0.11780
C348        C  0.30761093  0.27747531  0.26442971     0.02890
C349        C  0.27472702  0.27767797  0.27007687    -0.11200
H350        H  0.26533858  0.19924889  0.27459091     0.08490
H351        H  0.34880158  0.24918036  0.25572069     0.06020
H352        H  0.26310015  0.29988520  0.27344422     0.05860
C353        C  0.10038637  0.37844097  0.43878321    -0.06350
C354        C  0.09013406  0.35090261  0.42530821    -0.17480
C355        C  0.08983415  0.34667324  0.39253936     0.10840
C356        C  0.09993766  0.37076882  0.37252299    -0.06280
C357        C  0.10746705  0.39939426  0.38615272    -0.17510
C358        C  0.10792595  0.40340829  0.41914096     0.10880
S359        S  0.07694295  0.30999613  0.37686895    -0.32480
S360        S  0.12194182  0.43945536  0.43442619    -0.32480
H361        H  0.10308902  0.43935286  0.46332488     0.28880
H362        H  0.07882302  0.29337971  0.40449888     0.28880
H363        H  0.08441850  0.33183556  0.44049391     0.19470
H364        H  0.11493462  0.41800937  0.37102095     0.19480
C365        C  0.35083586  0.37049479  0.43885072    -0.06350
C366        C  0.32919743  0.35333553  0.42274040    -0.17480
C367        C  0.32883917  0.35373097  0.39001479     0.10840
C368        C  0.35137956  0.37079266  0.37205165    -0.06280
C369        C  0.37229518  0.38908677  0.38782073    -0.17510
C370        C  0.37191850  0.38953341  0.42104562     0.10880
S371        S  0.29890692  0.33166225  0.37259870    -0.32480
S372        S  0.39903182  0.41444838  0.43896709    -0.32480
H373        H  0.37569773  0.42885162  0.46026850     0.28880
H374        H  0.29600582  0.35139141  0.34740823     0.28880
H375        H  0.31205071  0.33933352  0.43568560     0.19470
H376        H  0.38969905  0.40222861  0.37417406     0.19480
C377        C  0.35088618  0.12429299  0.37103130    -0.06350
C378        C  0.37400011  0.10828882  0.38559590    -0.17480
C379        C  0.37323947  0.10780601  0.41881620     0.10840
C380        C  0.34934457  0.12436837  0.43786526    -0.06280
C381        C  0.32565737  0.13911874  0.42292849    -0.17510
C382        C  0.32586789  0.13885104  0.39012989     0.10880
S383        S  0.40313470  0.08570936  0.43524555    -0.32480
S384        S  0.29362758  0.15820351  0.37416296    -0.32480
H385        H  0.29399733  0.13877296  0.34676767     0.28880
H386        H  0.38224603  0.07243162  0.45824504     0.28880
H387        H  0.39336685  0.09716808  0.37111805     0.19470
H388        H  0.30667562  0.15141042  0.43689244     0.19480
C389        C  0.11548053  0.11760111  0.43690339    -0.06350
C390        C  0.08714806  0.12874314  0.42760943    -0.17480
C391        C  0.08231721  0.12978048  0.39545974     0.10840
C392        C  0.10643210  0.11969329  0.37205971    -0.06280
C393        C  0.13339524  0.10567797  0.38152323    -0.17510
C394        C  0.13810397  0.10440283  0.41364429     0.10880
S395        S  0.04545513  0.14558828  0.38577124    -0.32480
S396        S  0.17417644  0.08689447  0.42339281    -0.32480
H397        H  0.16190702  0.07647152  0.45295552     0.28880
H398        H  0.04493767  0.12836695  0.35701573     0.28880
H399        H  0.06951521  0.13843930  0.44527587     0.19470
H400        H  0.15183514  0.09759794  0.36385657     0.19480
C401        C  0.37208239  0.38586194  0.12301564    -0.06350
C402        C  0.39887503  0.39129996  0.13909038    -0.17480
C403        C  0.39768127  0.39213254  0.17194639     0.10840
C404        C  0.36912907  0.38685576  0.18989419    -0.06280
C405        C  0.34171685  0.38389881  0.17436391    -0.17510
C406        C  0.34283097  0.38380454  0.14109803     0.10880
S407        S  0.43392700  0.39858162  0.18949433    -0.32480
S408        S  0.30663973  0.37938586  0.12336932    -0.32480
H409        H  0.31172799  0.40505966  0.10432400     0.28880
H410        H  0.41988720  0.41214043  0.21809536     0.28880
H411        H  0.42144661  0.39437571  0.12601991     0.19470
H412        H  0.31967939  0.37976496  0.18801389     0.19480
C413        C  0.12048412  0.37994028  0.12087776    -0.06350
C414        C  0.13352439  0.35306925  0.13171806    -0.17480
C415        C  0.13482367  0.34926467  0.16416538     0.10840
C416        C  0.12289791  0.37284537  0.18626042    -0.06280
C417        C  0.11276820  0.40091238  0.17522835    -0.17510
C418        C  0.11143296  0.40468779  0.14273578     0.10880
S419        S  0.15001744  0.31291802  0.17610088    -0.32480
S420        S  0.09595579  0.44085051  0.13065884    -0.32480
H421        H  0.11182953  0.43943271  0.10007821     0.28880
H422        H  0.16112307  0.32496221  0.20413752     0.28880
H423        H  0.14046161  0.33404036  0.11512506     0.19470
H424        H  0.10372214  0.41907640  0.19198444     0.19480
C425        C  0.12330929  0.11839029  0.12129945    -0.06350
C426        C  0.13885256  0.14359013  0.13359019    -0.17480
C427        C  0.14082161  0.14746411  0.16624660     0.10840
C428        C  0.12636276  0.12595441  0.18714050    -0.06280
C429        C  0.11344027  0.09927074  0.17446601    -0.17510
C430        C  0.11177520  0.09530172  0.14178575     0.10880
S431        S  0.16077120  0.18115406  0.17983538    -0.32480
S432        S  0.09221056  0.06158913  0.12772246    -0.32480
H433        H  0.10922135  0.05980645  0.09772346     0.28880
H434        H  0.17152551  0.16725519  0.20632483     0.28880
H435        H  0.14766056  0.16136079  0.11797607     0.19470
H436        H  0.10253364  0.08255646  0.19015477     0.19480
C437        C  0.37575517  0.12623001  0.18537670    -0.06350
C438        C  0.40259567  0.13592980  0.16726174    -0.17480
C439        C  0.40386254  0.13716293  0.13448930     0.10840
C440        C  0.37842893  0.12638106  0.11839405    -0.06280
C441        C  0.35156420  0.11615297  0.13621733    -0.17510
C442        C  0.34969810  0.11661531  0.16954276     0.10880
S443        S  0.43813607  0.15468010  0.11512018    -0.32480
S444        S  0.31309737  0.10630643  0.19032252    -0.32480
H445        H  0.31125354  0.13297026  0.21047639     0.28880
H446        H  0.42145392  0.17116760  0.09399611     0.28880
H447        H  0.42254616  0.14413668  0.17887265     0.19470
H448        H  0.33188250  0.10799182  0.12418669     0.19480
C449        C  0.37551571  0.12622659  0.68632262    -0.06350
C450        C  0.36505636  0.15427624  0.67557542    -0.17480
C451        C  0.36392792  0.15840067  0.64311736     0.10840
C452        C  0.37333368  0.13392769  0.62098332    -0.06280
C453        C  0.38708151  0.10728738  0.63158304    -0.17510
C454        C  0.38831312  0.10321879  0.66401674     0.10880
S455        S  0.34802270  0.19455793  0.63148019    -0.32480
S456        S  0.40447811  0.06720644  0.67568329    -0.32480
H457        H  0.41480812  0.07936391  0.70404392     0.28880
H458        H  0.36365630  0.19344032  0.60078129     0.28880
H459        H  0.35550184  0.17208625  0.69249486     0.19470
H460        H  0.39443806  0.08850285  0.61484300     0.19480
C461        C  0.35191929  0.12122494  0.87206734    -0.06350
C462        C  0.34227432  0.09569182  0.88976196    -0.17480
C463        C  0.34116719  0.09664574  0.92265121     0.10840
C464        C  0.34980688  0.12375427  0.93872605    -0.06280
C465        C  0.35644437  0.15037740  0.92154367    -0.17510
C466        C  0.35792831  0.14930091  0.88824593     0.10880
S467        S  0.33097598  0.06165086  0.94272104    -0.32480
S468        S  0.37078575  0.18323022  0.86792514    -0.32480
H469        H  0.39137265  0.16710278  0.84510724     0.28880
H470        H  0.32109458  0.07631162  0.97219302     0.28880
H471        H  0.33654587  0.07423777  0.87778795     0.19470
H472        H  0.36374026  0.17109147  0.93375728     0.19480
C473        C  0.38104113  0.37485516  0.68393363    -0.06350
C474        C  0.37229710  0.34687458  0.67007214    -0.17480
C475        C  0.37140357  0.34364017  0.63718041     0.10840
C476        C  0.37944977  0.36883417  0.61793741    -0.06280
C477        C  0.39118944  0.39557547  0.63152091    -0.17510
C478        C  0.39242571  0.39871499  0.66424809     0.10880
S479        S  0.35600127  0.30833033  0.62148192    -0.32480
S480        S  0.40629267  0.43482468  0.67981445    -0.32480
H481        H  0.41806096  0.42195315  0.70631134     0.28880
H482        H  0.37211268  0.30990313  0.59119889     0.28880
H483        H  0.36345956  0.32857108  0.68497798     0.19470
H484        H  0.39708568  0.41503259  0.61691080     0.19480
C485        C  0.35911321  0.38664067  0.87161748    -0.06350
C486        C  0.36806656  0.41275741  0.88906345    -0.17480
C487        C  0.36923139  0.41263430  0.92162693     0.10840
C488        C  0.36248621  0.38534110  0.93783530    -0.06280
C489        C  0.35233660  0.35935492  0.92103829    -0.17510
C490        C  0.35005862  0.35991093  0.88812736     0.10880
S491        S  0.38005398  0.44827187  0.94104143    -0.32480
S492        S  0.33530628  0.32619015  0.86884670    -0.32480
H493        H  0.31562078  0.34308183  0.85084482     0.28880
H494        H  0.36172686  0.44370376  0.96968834     0.28880
H495        H  0.37447518  0.43382355  0.87727432     0.19470
H496        H  0.34712122  0.33832236  0.93334916     0.19480
C497        C  0.12274698  0.36479573  0.68606600    -0.06350
C498        C  0.09462201  0.36740667  0.67173264    -0.17480
C499        C  0.09472219  0.36952904  0.63867281     0.10840
C500        C  0.12352317  0.36843528  0.61946029    -0.06280
C501        C  0.15124011  0.36347844  0.63398526    -0.17510
C502        C  0.15116247  0.36149147  0.66666097     0.10880
S503        S  0.05777901  0.37593316  0.62297430    -0.32480
S504        S  0.18847610  0.35585846  0.68225880    -0.32480
H505        H  0.17635418  0.34084982  0.70946470     0.28880
H506        H  0.06859343  0.40052379  0.60441568     0.28880
H507        H  0.07273223  0.37048244  0.68647175     0.19470
H508        H  0.17354801  0.36141536  0.61980806     0.19480
C509        C  0.11331103  0.38346577  0.87169986    -0.06350
C510        C  0.10566186  0.41021575  0.89088165    -0.17480
C511        C  0.10624418  0.41048327  0.92355266     0.10840
C512        C  0.11344211  0.38308076  0.93833371    -0.06280
C513        C  0.12218565  0.35642196  0.91959606    -0.17510
C514        C  0.12275988  0.35648117  0.88636893     0.10880
S515        S  0.09716604  0.44672305  0.94520132    -0.32480
S516        S  0.13518875  0.32150152  0.86437176    -0.32480
H517        H  0.15861907  0.33626351  0.84528796     0.28880
H518        H  0.11628318  0.44107564  0.96961712     0.28880
H519        H  0.09935048  0.43158896  0.88044476     0.19470
H520        H  0.12752802  0.33523733  0.93090218     0.19480
C521        C  0.10946487  0.13301037  0.68837127    -0.06350
C522        C  0.09082277  0.11410091  0.67038209    -0.17480
C523        C  0.09301489  0.11489962  0.63725510     0.10840
C524        C  0.11377432  0.13561589  0.62179373    -0.06280
C525        C  0.13054407  0.15614957  0.64012553    -0.17510
C526        C  0.12910060  0.15470000  0.67308370     0.10880
S527        S  0.07152072  0.08671350  0.61614104    -0.32480
S528        S  0.15453362  0.17969270  0.69368148    -0.32480
H529        H  0.15864947  0.16094853  0.71928789     0.28880
H530        H  0.09703636  0.07761070  0.59438172     0.28880
H531        H  0.07633335  0.09682193  0.68204541     0.19470
H532        H  0.14647073  0.17226519  0.62847983     0.19480
C533        C  0.10223808  0.12295330  0.87194130    -0.06350
C534        C  0.12581551  0.13733265  0.88779419    -0.17480
C535        C  0.12562344  0.13681494  0.92100194     0.10840
C536        C  0.10187983  0.12072530  0.93877714    -0.06280
C537        C  0.07770590  0.10767436  0.92266476    -0.17510
C538        C  0.07730060  0.10909006  0.88996603     0.10880
S539        S  0.15672795  0.15613146  0.93891449    -0.32480
S540        S  0.04411230  0.09248494  0.87270316    -0.32640
H541        H  0.04407500  0.11334261  0.84807936     0.28880
H542        H  0.13607866  0.17461008  0.95962061     0.28880
H543        H  0.14511703  0.14796797  0.87419358     0.19470
H544        H  0.05852491  0.09622956  0.93562071     0.19480
C545        C  0.47221793  0.50029278  0.77146433     0.02900
C546        C  0.45511732  0.97209750  0.77211542    -0.13250
C547        C  0.42306379  0.97207509  0.76771178     0.00400
C548        C  0.40849996  0.99958507  0.76141904    -0.11780
C549        C  0.42239390  0.52787682  0.76587748     0.02890
C550        C  0.45448414  0.52845608  0.77027743    -0.11200
H551        H  0.46584510  0.95021253  0.77624631     0.08490
H552        H  0.38443180  0.99910007  0.75572803     0.06020
H553        H  0.46481260  0.55082236  0.77252291     0.05860
In554      In  0.11864682  0.60015022  0.77639376     1.36870
C555        C  0.10675324  0.61722129  0.83721685     0.77350
O556        O  0.06815225  0.58325209  0.77481941    -0.61090
O557        O  0.10712536  0.55232184  0.76735952    -0.52010
C558        C  0.11357651  0.62381605  0.72061462     0.70020
O559        O  0.10143655  0.63762203  0.74572277    -0.46860
C560        C  0.17739997  0.58052778  0.77932577     0.74720
O561        O  0.11935264  0.63569455  0.81758804    -0.58720
O562        O  0.15396925  0.56366180  0.77748014    -0.48810
O563        O  0.09929622  0.59183097  0.82511451    -0.55150
C564        C  0.07776950  0.55563507  0.76937556     0.84900
O565        O  0.12953555  0.60012287  0.72468996    -0.57050
O566        O  0.17127709  0.60912830  0.77887986    -0.60340
C567        C  0.26640123  0.93508674  0.78328613     0.02900
C568        C  0.26497027  0.96750012  0.78609358    -0.13250
C569        C  0.23677387  0.98379571  0.79336369     0.00400
C570        C  0.20930752  0.96675729  0.79706482    -0.11780
C571        C  0.20933822  0.93488417  0.78968121     0.02890
C572        C  0.23821490  0.91853702  0.78418889    -0.11200
H573        H  0.28632075  0.98011838  0.78181646     0.08490
H574        H  0.18725438  0.97841959  0.80421110     0.06020
H575        H  0.23872052  0.89376534  0.77968661     0.05860
C576        C  0.20843134  0.56636652  0.78308869     0.02900
C577        C  0.20912266  0.53419766  0.78599919    -0.13250
C578        C  0.23590051  0.51840199  0.79335619     0.00400
C579        C  0.26269844  0.53567176  0.79720780    -0.11780
C580        C  0.26435718  0.56688229  0.78946177     0.02890
C581        C  0.23661294  0.58284099  0.78370579    -0.11200
H582        H  0.18845776  0.52138081  0.78179175     0.08490
H583        H  0.28323828  0.52450080  0.80473102     0.06020
H584        H  0.23708715  0.60723083  0.77906136     0.05860
In585      In  0.12146409  0.90107903  0.77687688     1.36870
C586        C  0.11292862  0.88670474  0.83695859     0.77350
O587        O  0.17344299  0.89253885  0.78220211    -0.61090
O588        O  0.15493421  0.93829062  0.78274416    -0.52010
C589        C  0.12305662  0.87392068  0.71989711     0.70020
O590        O  0.10250194  0.86677949  0.74167096    -0.46860
C591        C  0.07937863  0.94462884  0.76794792     0.74720
O592        O  0.12064319  0.86599249  0.81561899    -0.58720
O593        O  0.10866210  0.94705367  0.76291780    -0.48810
O594        O  0.10609529  0.91239261  0.82645128    -0.55150
C595        C  0.17857831  0.92115609  0.78499721     0.84900
O596        O  0.14342181  0.89210303  0.72856891    -0.57050
O597        O  0.07057599  0.91829813  0.77668601    -0.60340
In598      In  0.35798555  0.90291342  0.77643783     1.36870
C599        C  0.37143127  0.88195660  0.71763542     0.77350
O600        O  0.30507262  0.89244465  0.78013327    -0.61090
O601        O  0.32165550  0.93802639  0.77566364    -0.52010
C602        C  0.35903267  0.89004194  0.83690028     0.70020
O603        O  0.35862931  0.86833080  0.81594022    -0.46860
C604        C  0.40189864  0.94542655  0.77171614     0.74720
O605        O  0.37773536  0.86554306  0.74045295    -0.58720
O606        O  0.37276631  0.95015729  0.77403936    -0.48810
O607        O  0.35615503  0.90634969  0.72548427    -0.55150
C608        C  0.29827163  0.92091903  0.77915155     0.84900
O609        O  0.35987818  0.91659256  0.82606086    -0.57050
O610        O  0.40990724  0.91731688  0.77303867    -0.60340
In611      In  0.35567260  0.59802581  0.77716194     1.36870
C612        C  0.36721357  0.61861793  0.71955234     0.77350
O613        O  0.40749911  0.58261498  0.77554810    -0.61090
O614        O  0.37185037  0.55102583  0.76607465    -0.52010
C615        C  0.35636236  0.61583071  0.83729995     0.70020
O616        O  0.35090973  0.63533570  0.81685756    -0.46860
C617        C  0.29620657  0.57996022  0.78493504     0.74720
O618        O  0.37391973  0.63477660  0.74350252    -0.58720
O619        O  0.31995780  0.56258624  0.78468769    -0.48810
O620        O  0.35270555  0.59429532  0.72578665    -0.55150
C621        C  0.40056824  0.55497809  0.76873579     0.84900
O622        O  0.36434202  0.58937881  0.82601467    -0.57050
O623        O  0.30251226  0.60793597  0.78026274    -0.60340
C624        C  0.00785164  0.50024715  0.77119588     0.02900
C625        C  0.02491006  0.52842475  0.77103093    -0.13250
C626        C  0.05781599  0.52809636  0.76689523     0.00400
C627        C  0.07371333  0.49996515  0.76244156    -0.11780
C628        C  0.05863709  0.97205432  0.76591572     0.02890
C629        C  0.02571601  0.97198479  0.76988672    -0.11200
H630        H  0.01342317  0.55068825  0.77409837     0.08490
H631        H  0.09898239  0.49982792  0.75845815     0.06020
H632        H  0.01484794  0.94979501  0.77158494     0.05860
C633        C  0.48953218  0.73047392  0.02404531     0.02900
C634        C  0.01671241  0.71281769  0.02991117    -0.13250
C635        C  0.01647657  0.68032166  0.02879275     0.00400
C636        C  0.48974541  0.66528951  0.02102574    -0.11780
C637        C  0.46246003  0.68110222  0.01627795     0.02890
C638        C  0.46207881  0.71363085  0.01791560    -0.11200
H639        H  0.03794026  0.72352503  0.03596276     0.08490
H640        H  0.48979951  0.64024170  0.01976762     0.06020
H641        H  0.44049514  0.72502471  0.01374555     0.05860
C642        C  0.42064134  0.97328675  0.03911965     0.02900
C643        C  0.45062237  0.97480261  0.04951366    -0.13250
C644        C  0.46865900  0.00120536  0.04582032     0.00400
C645        C  0.45433416  0.52787779  0.03594518    -0.11780
C646        C  0.42269454  0.52856455  0.03013474     0.02890
C647        C  0.40569441  0.50077349  0.03097866    -0.11200
H648        H  0.46061047  0.95431330  0.05867195     0.08490
H649        H  0.46787800  0.54847648  0.03230279     0.06020
H650        H  0.38205126  0.50030141  0.02408118     0.05860
C651        C  0.05265130  0.52685919  0.04739233     0.02900
C652        C  0.01992412  0.52656405  0.05334373    -0.13250
C653        C  0.00311711  0.49981284  0.04824181     0.00400
C654        C  0.01986265  0.97210896  0.04175503    -0.11780
C655        C  0.05259695  0.97059890  0.04071132     0.02890
C656        C  0.06938994  0.49844586  0.04209098    -0.11200
H657        H  0.00729716  0.54790086  0.06002104     0.08490
H658        H  0.00744494  0.95130848  0.03652042     0.06020
H659        H  0.09469646  0.49805163  0.03877886     0.05860
In660      In  0.39194854  0.61787887  0.02104684     1.36870
C661        C  0.38127935  0.62331701  0.08339252     0.77350
O662        O  0.38102443  0.56725515  0.02980560    -0.61090
O663        O  0.42729222  0.58057686  0.01393389    -0.52010
C664        C  0.36186966  0.62141670  0.96979732     0.70020
O665        O  0.35478485  0.63957303  0.99352322    -0.46860
C666        C  0.43492150  0.66135291  0.01315001     0.74720
O667        O  0.35861666  0.62416256  0.06614311    -0.58720
O668        O  0.43841074  0.63381377  0.00249159    -0.48810
O669        O  0.40770498  0.61927790  0.06839871    -0.55150
C670        C  0.40948717  0.55918897  0.02359222     0.84900
O671        O  0.38211255  0.60111388  0.97363530    -0.57050
O672        O  0.40753277  0.66821218  0.02491264    -0.60340
In673      In  0.08593192  0.61535353  0.03611987     1.36870
C674        C  0.11206062  0.62030601  0.08981599     0.77350
O675        O  0.07161242  0.66623845  0.03092211    -0.61090
O676        O  0.03768157  0.63234911  0.04251739    -0.52010
C677        C  0.09971764  0.61729325  0.97379294     0.70020
O678        O  0.11674431  0.63061775  0.99289356    -0.46860
C679        C  0.06679112  0.55776039  0.04406398     0.74720
O680        O  0.12884883  0.61591368  0.06379702    -0.58720
O681        O  0.04979126  0.58175867  0.04838179    -0.48810
O682        O  0.08351986  0.62516281  0.08745743    -0.55150
C683        C  0.04291308  0.65978010  0.03502640     0.84900
O684        O  0.07864844  0.60105368  0.98707355    -0.57050
O685        O  0.09519116  0.56288482  0.03529428    -0.60340
In686      In  0.08642155  0.88039793  0.03343950     1.36870
C687        C  0.10974656  0.87903344  0.08894938     0.77350
O688        O  0.09590803  0.93268517  0.03480316    -0.61090
O689        O  0.04960042  0.91579397  0.03838123    -0.52010
C690        C  0.10543322  0.88102481  0.97258562     0.70020
O691        O  0.12291644  0.86959050  0.99181748    -0.46860
C692        C  0.04516047  0.83506793  0.03103727     0.74720
O693        O  0.12683145  0.87235497  0.06354411    -0.58720
O694        O  0.03948413  0.86212341  0.04199232    -0.48810
O695        O  0.08158739  0.88467986  0.08547114    -0.55150
C696        C  0.06689115  0.93911118  0.03775714     0.84900
O697        O  0.07943337  0.89135559  0.98475785    -0.57050
O698        O  0.07387393  0.82912785  0.02385780    -0.60340
In699      In  0.39309015  0.88284484  0.02635402     1.36870
C700        C  0.37186574  0.88276142  0.97013991     0.77350
O701        O  0.38042334  0.93465435  0.03258075    -0.61090
O702        O  0.42774246  0.91912512  0.02981288    -0.52010
C703        C  0.37727169  0.88220467  0.08790193     0.70020
O704        O  0.35627794  0.88106657  0.06863276    -0.46860
C705        C  0.43557007  0.83725722  0.01821222     0.74720
O706        O  0.35593626  0.87050197  0.99300778    -0.58720
O707        O  0.43990547  0.86505539  0.01155200    -0.48810
O708        O  0.39753773  0.89369378  0.97663440    -0.55150
C709        C  0.40879514  0.94175380  0.03367868     0.84900
O710        O  0.40481258  0.88080403  0.07489673    -0.57050
O711        O  0.40739723  0.83119932  0.02706779    -0.60340
C712        C  0.48994770  0.76577997  0.02385351     0.02900
C713        C  0.01841000  0.78239323  0.02601056    -0.13250
C714        C  0.01867772  0.81475793  0.02479556     0.00400
C715        C  0.49164411  0.83033641  0.01873312    -0.11780
C716        C  0.46299950  0.81591957  0.01850491     0.02890
C717        C  0.46190996  0.78366413  0.02158408    -0.11200
H718        H  0.04030017  0.77106167  0.02906052     0.08490
H719        H  0.49274705  0.85510302  0.01611129     0.06020
H720        H  0.43923022  0.77326374  0.02225315     0.05860
C721        C  0.23951115  0.51736543  0.52904932     0.02900
C722        C  0.26771091  0.53400052  0.53285898    -0.13250
C723        C  0.26732935  0.56646201  0.53593244     0.00400
C724        C  0.23961364  0.58246807  0.53321370    -0.11780
C725        C  0.21198441  0.56779604  0.52805289     0.02890
C726        C  0.21150167  0.53529715  0.52681472    -0.11200
H727        H  0.28996107  0.52255803  0.53375814     0.08490
H728        H  0.23960595  0.60751086  0.53480043     0.06020
H729        H  0.18936213  0.52486617  0.52368939     0.05860
In730      In  0.14249489  0.63435375  0.52648150     1.36870
C731        C  0.12237809  0.63414351  0.58724310     0.77350
O732        O  0.15661348  0.58342578  0.53269206    -0.61090
O733        O  0.18999892  0.61595359  0.51588947    -0.52010
C734        C  0.12330536  0.62430958  0.46955728     0.70020
O735        O  0.10494742  0.62074467  0.49430745    -0.46860
C736        C  0.15845828  0.69357306  0.53048280     0.74720
O737        O  0.10360399  0.62949702  0.56615925    -0.58720
O738        O  0.17709112  0.67074144  0.52802661    -0.48810
O739        O  0.15038007  0.63779566  0.57676589    -0.55150
C740        C  0.18506024  0.58887518  0.52469606     0.84900
O741        O  0.14972908  0.63450884  0.47449408    -0.57050
O742        O  0.13013199  0.68657117  0.52874562    -0.60340
C743        C  0.17069069  0.72507845  0.53558940     0.02900
C744        C  0.20077754  0.72633769  0.54584849    -0.13250
C745        C  0.21874291  0.75285089  0.54292857     0.00400
C746        C  0.20439196  0.77977153  0.53382886    -0.11780
C747        C  0.17269459  0.78067757  0.52827494     0.02890
C748        C  0.15568815  0.75285332  0.52834746    -0.11200
H749        H  0.21084971  0.70569831  0.55461166     0.08490
H750        H  0.21796843  0.80041921  0.53072906     0.06020
H751        H  0.13189783  0.75266966  0.52186074     0.05860
C752        C  0.30251558  0.77838057  0.54741629     0.02900
C753        C  0.26972343  0.77811348  0.55221636    -0.13250
C754        C  0.25310724  0.75149724  0.54577942     0.00400
C755        C  0.26997376  0.72393954  0.53877943    -0.11780
C756        C  0.30257571  0.72230818  0.53895395     0.02890
C757        C  0.31930717  0.75003529  0.54171245    -0.11200
H758        H  0.25702913  0.79940148  0.55895462     0.08490
H759        H  0.25778655  0.70329506  0.53243566     0.06020
H760        H  0.34463166  0.74959768  0.53947476     0.05860
In761      In  0.33550388  0.63194353  0.53541986     1.36870
C762        C  0.36162738  0.63266174  0.58941413     0.77350
O763        O  0.34557399  0.68401584  0.53280948    -0.61090
O764        O  0.29914566  0.66769808  0.53967505    -0.52010
C765        C  0.34660288  0.62677336  0.47304022     0.70020
O766        O  0.36851427  0.62223738  0.49065466    -0.46860
C767        C  0.29463052  0.58638350  0.54010122     0.74720
O768        O  0.37719542  0.62331159  0.56380653    -0.58720
O769        O  0.29016656  0.61337128  0.55182028    -0.48810
O770        O  0.33374492  0.64022464  0.58672039    -0.55150
C771        C  0.31664342  0.69075046  0.53686717     0.84900
O772        O  0.32072622  0.63438496  0.48780240    -0.57050
O773        O  0.32255928  0.58052488  0.52915825    -0.60340
In774      In  0.33640826  0.86656293  0.53625248     1.36870
C775        C  0.36649638  0.87122607  0.58739016     0.77350
O776        O  0.32185898  0.91733992  0.53109345    -0.61090
O777        O  0.28800789  0.88346882  0.54325095    -0.52010
C778        C  0.34878086  0.86809445  0.47390609     0.70020
O779        O  0.36622819  0.88160989  0.49244759    -0.46860
C780        C  0.31690625  0.80920571  0.54519952     0.74720
O781        O  0.38093708  0.86343649  0.56086559    -0.58720
O782        O  0.30076981  0.83337982  0.55255336    -0.48810
O783        O  0.33855246  0.87980443  0.58656718    -0.55150
C784        C  0.29316731  0.91090938  0.53562122     0.84900
O785        O  0.32772446  0.85224023  0.48774588    -0.57050
O786        O  0.34454723  0.81411669  0.53369861    -0.60340
In787      In  0.14072130  0.87027653  0.52208268     1.36870
C788        C  0.12706847  0.87164869  0.58451064     0.77350
O789        O  0.13062661  0.81885461  0.52753869    -0.61090
O790        O  0.17707122  0.83384772  0.51619511    -0.52010
C791        C  0.11267578  0.87605071  0.46978166     0.70020
O792        O  0.10282707  0.89127316  0.49491341    -0.46860
C793        C  0.18438817  0.91316448  0.51584156     0.74720
O794        O  0.10570401  0.86809454  0.56597824    -0.58720
O795        O  0.18789408  0.88539272  0.50593293    -0.48810
O796        O  0.15353637  0.87688459  0.57069576    -0.55150
C797        C  0.15935954  0.81158513  0.52309202     0.84900
O798        O  0.13488740  0.85755615  0.47252533    -0.57050
O799        O  0.15666772  0.92057034  0.52641411    -0.60340
C800        C  0.23940566  0.98197864  0.52720394     0.02900
C801        C  0.21173661  0.96527306  0.52146782    -0.13250
C802        C  0.21213696  0.93276794  0.51883558     0.00400
C803        C  0.23973658  0.91679947  0.52226425    -0.11780
C804        C  0.26663727  0.93161236  0.52988842     0.02890
C805        C  0.26684198  0.96410945  0.53180055    -0.11200
H806        H  0.18982043  0.97668650  0.51876798     0.08490
H807        H  0.23994835  0.89177213  0.52025497     0.06020
H808        H  0.28821002  0.97461385  0.53768849     0.05860
C809        C  0.22203228  0.74918116  0.27415769     0.02900
C810        C  0.20514056  0.72106810  0.27840211    -0.13250
C811        C  0.17234552  0.72086756  0.27914416     0.00400
C812        C  0.15640477  0.74809685  0.27468304    -0.11780
C813        C  0.17118785  0.77619438  0.27183794     0.02890
C814        C  0.20401308  0.77693896  0.27148847    -0.11200
H815        H  0.21658325  0.69932788  0.28157678     0.08490
H816        H  0.13123571  0.74743913  0.27423344     0.06020
H817        H  0.21476222  0.79907706  0.26853283     0.05860
C818        C  0.01656933  0.68401423  0.28581300     0.02900
C819        C  0.48845901  0.66725966  0.28802195    -0.13250
C820        C  0.45961550  0.68335753  0.29530302     0.00400
C821        C  0.45974660  0.71513322  0.30313929    -0.11780
C822        C  0.48686371  0.73235468  0.29776734     0.02890
C823        C  0.01494874  0.71638793  0.28867404    -0.11200
H824        H  0.48895998  0.64250952  0.28337584     0.08490
H825        H  0.43796795  0.72677686  0.31150840     0.06020
H826        H  0.03602273  0.72921189  0.28327979     0.05860
C827        C  0.45757307  0.81430676  0.28686143     0.02900
C828        C  0.45832103  0.78231295  0.29080391    -0.13250
C829        C  0.48547578  0.76685719  0.29778701     0.00400
C830        C  0.01228705  0.78425411  0.30086612    -0.11780
C831        C  0.01370469  0.81524324  0.29246594     0.02890
C832        C  0.48577626  0.83089997  0.28674181    -0.11200
H833        H  0.43750300  0.76934150  0.28752635     0.08490
H834        H  0.03304601  0.77318793  0.30807595     0.06020
H835        H  0.48616368  0.85509872  0.28126461     0.05860
In836      In  0.10788555  0.65153140  0.28161726     1.36870
C837        C  0.10671297  0.62925493  0.33901913     0.77350
O838        O  0.15979057  0.66588879  0.27634427    -0.61090
O839        O  0.12361188  0.69768045  0.29305856    -0.52010
C840        C  0.11976082  0.63362148  0.22134631     0.70020
O841        O  0.11847523  0.61405338  0.24295056    -0.46860
C842        C  0.04848397  0.66996190  0.28149214     0.74720
O843        O  0.11857473  0.61355165  0.31488784    -0.58720
O844        O  0.07198077  0.68703432  0.27849615    -0.48810
O845        O  0.09619250  0.65534073  0.33318864    -0.55150
C846        C  0.15212209  0.69363547  0.28382394     0.84900
O847        O  0.11382175  0.66101850  0.23096153    -0.57050
O848        O  0.05514449  0.64149859  0.28256380    -0.60340
In849      In  0.37165948  0.65138713  0.28008031     1.36870
C850        C  0.35648984  0.63151593  0.33734685     0.77350
O851        O  0.42377430  0.64177436  0.28424931    -0.61090
O852        O  0.40455294  0.68705247  0.29254898    -0.52010
C853        C  0.37518547  0.63152958  0.22016462     0.70020
O854        O  0.35740894  0.61839784  0.24095397    -0.46860
C855        C  0.32972266  0.69501463  0.27121589     0.74720
O856        O  0.36883955  0.61317923  0.31555892    -0.58720
O857        O  0.35856058  0.69912434  0.27299715    -0.48810
O858        O  0.35055654  0.65816857  0.32873245    -0.55150
C859        C  0.42862848  0.66987260  0.29112671     0.84900
O860        O  0.39256883  0.65157267  0.23113236    -0.57050
O861        O  0.32128201  0.66735923  0.27439517    -0.60340
In862      In  0.36877334  0.84875341  0.27684127     1.36870
C863        C  0.36922850  0.87667561  0.22255831     0.77350
O864        O  0.42038491  0.85695844  0.28372982    -0.61090
O865        O  0.40379327  0.81143159  0.27709010    -0.52010
C866        C  0.35676423  0.86486433  0.33753165     0.70020
O867        O  0.36439708  0.88502674  0.31746967    -0.46860
C868        C  0.32757036  0.80508936  0.26627800     0.74720
O869        O  0.34776136  0.88251195  0.24454152    -0.58720
O870        O  0.35676522  0.80267191  0.25956104    -0.48810
O871        O  0.39065993  0.85908725  0.22975314    -0.55150
C872        C  0.42672291  0.82830455  0.28207429     0.84900
O873        O  0.35479255  0.83791550  0.32605006    -0.57050
O874        O  0.31831499  0.83157621  0.27696763    -0.60340
In875      In  0.10483785  0.84640609  0.27786114     1.36870
C876        C  0.10487922  0.86485853  0.33784564     0.77350
O877        O  0.05165969  0.85620827  0.28205715    -0.61090
O878        O  0.06932436  0.81087578  0.28619008    -0.52010
C879        C  0.11526440  0.86594794  0.21976879     0.70020
O880        O  0.12290818  0.88233956  0.24318182    -0.46860
C881        C  0.14981352  0.80339832  0.27132073     0.74720
O882        O  0.09907069  0.88405938  0.31721697    -0.58720
O883        O  0.12144357  0.79939365  0.26693000    -0.48810
O884        O  0.11435489  0.83879399  0.32674018    -0.55150
C885        C  0.04550135  0.82825561  0.28698081     0.84900
O886        O  0.10050886  0.84197063  0.22681197    -0.57050
O887        O  0.15655409  0.83119749  0.27762248    -0.60340
C888        C  0.25781470  0.74941780  0.27170936     0.02900
C889        C  0.27592273  0.72138373  0.27119404    -0.13250
C890        C  0.30879963  0.72169411  0.26672082     0.00400
C891        C  0.32358877  0.74936338  0.26062021    -0.11780
C892        C  0.30761093  0.77747531  0.26442969     0.02890
C893        C  0.27472703  0.77767797  0.27007686    -0.11200
H894        H  0.26533858  0.69924889  0.27459090     0.08490
H895        H  0.34880158  0.74918036  0.25572064     0.06020
H896        H  0.26310015  0.79988520  0.27344421     0.05860
C897        C  0.10038636  0.87844104  0.43878321    -0.06350
C898        C  0.09013396  0.85090271  0.42530823    -0.17480
C899        C  0.08983404  0.84667333  0.39253937     0.10840
C900        C  0.09993765  0.87076887  0.37252300    -0.06280
C901        C  0.10746712  0.89939429  0.38615271    -0.17510
C902        C  0.10792602  0.90340833  0.41914095     0.10880
S903        S  0.07694273  0.80999627  0.37686894    -0.32480
S904        S  0.12194199  0.93945537  0.43442617    -0.32480
H905        H  0.10308923  0.93935290  0.46332488     0.28880
H906        H  0.07882188  0.79338001  0.40449911     0.28880
H907        H  0.08441836  0.83183567  0.44049394     0.19470
H908        H  0.11493476  0.91800937  0.37102094     0.19480
C909        C  0.35083587  0.87049479  0.43885070    -0.06350
C910        C  0.32919744  0.85333551  0.42274038    -0.17480
C911        C  0.32883919  0.85373096  0.39001477     0.10840
C912        C  0.35137956  0.87079265  0.37205163    -0.06280
C913        C  0.37229518  0.88908677  0.38782071    -0.17510
C914        C  0.37191850  0.88953341  0.42104560     0.10880
S915        S  0.29890694  0.83166222  0.37259868    -0.32480
S916        S  0.39903181  0.91444840  0.43896707    -0.32480
H917        H  0.37569771  0.92885162  0.46026848     0.28880
H918        H  0.29600583  0.85139138  0.34740822     0.28880
H919        H  0.31205073  0.83933350  0.43568558     0.19470
H920        H  0.38969904  0.90222862  0.37417404     0.19480
C921        C  0.35088619  0.62429300  0.37103127    -0.06350
C922        C  0.37400010  0.60828882  0.38559588    -0.17480
C923        C  0.37323946  0.60780601  0.41881617     0.10840
C924        C  0.34934457  0.62436838  0.43786523    -0.06280
C925        C  0.32565738  0.63911876  0.42292846    -0.17510
C926        C  0.32586790  0.63885106  0.39012986     0.10880
S927        S  0.40313468  0.58570934  0.43524552    -0.32480
S928        S  0.29362760  0.65820355  0.37416294    -0.32480
H929        H  0.29399734  0.63877300  0.34676765     0.28880
H930        H  0.38224601  0.57243162  0.45824502     0.28880
H931        H  0.39336684  0.59716807  0.37111802     0.19470
H932        H  0.30667564  0.65141045  0.43689241     0.19480
C933        C  0.11548054  0.61760111  0.43690340    -0.06350
C934        C  0.08714806  0.62874312  0.42760943    -0.17480
C935        C  0.08231722  0.62978046  0.39545974     0.10840
C936        C  0.10643211  0.61969327  0.37205971    -0.06280
C937        C  0.13339526  0.60567797  0.38152324    -0.17510
C938        C  0.13810399  0.60440284  0.41364430     0.10880
S939        S  0.04545513  0.64558823  0.38577124    -0.32480
S940        S  0.17417647  0.58689450  0.42339282    -0.32480
H941        H  0.16190705  0.57647154  0.45295553     0.28880
H942        H  0.04493768  0.62836690  0.35701572     0.28880
H943        H  0.06951521  0.63843927  0.44527587     0.19470
H944        H  0.15183517  0.59759795  0.36385658     0.19480
C945        C  0.37208241  0.88586193  0.12301562    -0.06350
C946        C  0.39887505  0.89129994  0.13909036    -0.17480
C947        C  0.39768129  0.89213252  0.17194637     0.10840
C948        C  0.36912909  0.88685575  0.18989417    -0.06280
C949        C  0.34171687  0.88389882  0.17436389    -0.17510
C950        C  0.34283099  0.88380454  0.14109801     0.10880
S951        S  0.43392702  0.89858158  0.18949431    -0.32480
S952        S  0.30663974  0.87938589  0.12336930    -0.32480
H953        H  0.31172802  0.90505968  0.10432398     0.28880
H954        H  0.41988723  0.91214040  0.21809534     0.28880
H955        H  0.42144663  0.89437568  0.12601989     0.19470
H956        H  0.31967940  0.87976498  0.18801387     0.19480
C957        C  0.12048411  0.87994026  0.12087776    -0.06350
C958        C  0.13352437  0.85306922  0.13171807    -0.17480
C959        C  0.13482365  0.84926465  0.16416539     0.10840
C960        C  0.12289790  0.87284535  0.18626042    -0.06280
C961        C  0.11276820  0.90091236  0.17522836    -0.17510
C962        C  0.11143296  0.90468777  0.14273578     0.10880
S963        S  0.15001741  0.81291798  0.17610089    -0.32480
S964        S  0.09595580  0.94085050  0.13065884    -0.32480
H965        H  0.11182954  0.93943268  0.10007821     0.28880
H966        H  0.16112305  0.82496217  0.20413752     0.28880
H967        H  0.14046158  0.83404033  0.11512507     0.19470
H968        H  0.10372215  0.91907639  0.19198444     0.19480
C969        C  0.12330930  0.61839029  0.12129945    -0.06350
C970        C  0.13885256  0.64359013  0.13359019    -0.17480
C971        C  0.14082161  0.64746411  0.16624660     0.10840
C972        C  0.12636277  0.62595441  0.18714050    -0.06280
C973        C  0.11344028  0.59927074  0.17446601    -0.17510
C974        C  0.11177521  0.59530172  0.14178575     0.10880
S975        S  0.16077120  0.68115407  0.17983539    -0.32480
S976        S  0.09221057  0.56158913  0.12772246    -0.32480
H977        H  0.10922136  0.55980646  0.09772346     0.28880
H978        H  0.17152551  0.66725519  0.20632483     0.28880
H979        H  0.14766056  0.66136079  0.11797608     0.19470
H980        H  0.10253366  0.58255646  0.19015477     0.19480
C981        C  0.37575518  0.62623000  0.18537667    -0.06350
C982        C  0.40259567  0.63592979  0.16726171    -0.17480
C983        C  0.40386254  0.63716292  0.13448927     0.10840
C984        C  0.37842893  0.62638104  0.11839402    -0.06280
C985        C  0.35156420  0.61615295  0.13621731    -0.17510
C986        C  0.34969811  0.61661530  0.16954274     0.10880
S987        S  0.43813607  0.65468010  0.11512015    -0.32480
S988        S  0.31309738  0.60630640  0.19032250    -0.32480
H989        H  0.31125354  0.63297024  0.21047636     0.28880
H990        H  0.42145391  0.67116759  0.09399608     0.28880
H991        H  0.42254617  0.64413668  0.17887262     0.19470
H992        H  0.33188251  0.60799180  0.12418666     0.19480
C993        C  0.37551570  0.62622658  0.68632260    -0.06350
C994        C  0.36505635  0.65427623  0.67557540    -0.17480
C995        C  0.36392792  0.65840067  0.64311734     0.10840
C996        C  0.37333368  0.63392769  0.62098330    -0.06280
C997        C  0.38708150  0.60728736  0.63158302    -0.17510
C998        C  0.38831310  0.60321877  0.66401672     0.10880
S999        S  0.34802271  0.69455793  0.63148016    -0.32480
S1000       S  0.40447808  0.56720642  0.67568326    -0.32480
H1001       H  0.41480810  0.57936389  0.70404390     0.28880
H1002       H  0.36365631  0.69344032  0.60078127     0.28880
H1003       H  0.35550184  0.67208625  0.69249484     0.19470
H1004       H  0.39443804  0.58850284  0.61484298     0.19480
C1005       C  0.35191928  0.62122495  0.87206732    -0.06350
C1006       C  0.34227429  0.59569184  0.88976194    -0.17480
C1007       C  0.34116716  0.59664577  0.92265119     0.10840
C1008       C  0.34980687  0.62375428  0.93872603    -0.06280
C1009       C  0.35644438  0.65037741  0.92154364    -0.17510
C1010       C  0.35792831  0.64930091  0.88824590     0.10880
S1011       S  0.33097592  0.56165089  0.94272103    -0.32480
S1012       S  0.37078578  0.68323021  0.86792510    -0.32480
H1013       H  0.39137267  0.66710276  0.84510720     0.28880
H1014       H  0.32109454  0.57631167  0.97219301     0.28880
H1015       H  0.33654581  0.57423779  0.87778793     0.19470
H1016       H  0.36374029  0.67109148  0.93375725     0.19480
C1017       C  0.38104113  0.87485516  0.68393361    -0.06350
C1018       C  0.37229712  0.84687458  0.67007212    -0.17480
C1019       C  0.37140358  0.84364017  0.63718039     0.10840
C1020       C  0.37944978  0.86883418  0.61793739    -0.06280
C1021       C  0.39118944  0.89557548  0.63152089    -0.17510
C1022       C  0.39242571  0.89871500  0.66424807     0.10880
S1023       S  0.35600130  0.80833033  0.62148189    -0.32480
S1024       S  0.40629266  0.93482469  0.67981443    -0.32480
H1025       H  0.41806096  0.92195316  0.70631132     0.28880
H1026       H  0.37211271  0.80990313  0.59119887     0.28880
H1027       H  0.36345958  0.82857108  0.68497796     0.19470
H1028       H  0.39708568  0.91503259  0.61691078     0.19480
C1029       C  0.35911321  0.88664068  0.87161746    -0.06350
C1030       C  0.36806652  0.91275743  0.88906345    -0.17480
C1031       C  0.36923135  0.91263432  0.92162692     0.10840
C1032       C  0.36248620  0.88534111  0.93783528    -0.06280
C1033       C  0.35233661  0.85935492  0.92103827    -0.17510
C1034       C  0.35005864  0.85991093  0.88812734     0.10880
S1035       S  0.38005391  0.94827190  0.94104143    -0.32480
S1036       S  0.33530632  0.82619013  0.86884667    -0.32480
H1037       H  0.31562081  0.84308180  0.85084480     0.28880
H1038       H  0.36172680  0.94370376  0.96968834     0.28880
H1039       H  0.37447513  0.93382358  0.87727432     0.19470
H1040       H  0.34712125  0.83832236  0.93334913     0.19480
C1041       C  0.12274697  0.86479573  0.68606599    -0.06350
C1042       C  0.09462201  0.86740668  0.67173264    -0.17480
C1043       C  0.09472219  0.86952905  0.63867280     0.10840
C1044       C  0.12352317  0.86843528  0.61946028    -0.06280
C1045       C  0.15124011  0.86347843  0.63398526    -0.17510
C1046       C  0.15116247  0.86149146  0.66666096     0.10880
S1047       S  0.05777901  0.87593318  0.62297430    -0.32480
S1048       S  0.18847609  0.85585843  0.68225880    -0.32480
H1049       H  0.17635417  0.84084980  0.70946470     0.28880
H1050       H  0.06859344  0.90052380  0.60441567     0.28880
H1051       H  0.07273223  0.87048246  0.68647174     0.19470
H1052       H  0.17354800  0.86141534  0.61980805     0.19480
C1053       C  0.11331104  0.88346577  0.87169986    -0.06350
C1054       C  0.10566188  0.91021575  0.89088164    -0.17480
C1055       C  0.10624420  0.91048327  0.92355266     0.10840
C1056       C  0.11344213  0.88308075  0.93833371    -0.06280
C1057       C  0.12218566  0.85642195  0.91959606    -0.17510
C1058       C  0.12275989  0.85648117  0.88636893     0.10880
S1059       S  0.09716608  0.94672305  0.94520131    -0.32480
S1060       S  0.13518875  0.82150151  0.86437175    -0.32480
H1061       H  0.15861907  0.83626350  0.84528795     0.28880
H1062       H  0.11628321  0.94107564  0.96961712     0.28880
H1063       H  0.09935051  0.93158897  0.88044475     0.19470
H1064       H  0.12752802  0.83523733  0.93090217     0.19480
C1065       C  0.10946484  0.63301034  0.68837128    -0.06350
C1066       C  0.09082278  0.61410086  0.67038209    -0.17480
C1067       C  0.09301489  0.61489958  0.63725510     0.10840
C1068       C  0.11377429  0.63561589  0.62179374    -0.06280
C1069       C  0.13054401  0.65614958  0.64012554    -0.17510
C1070       C  0.12910054  0.65470000  0.67308372     0.10880
S1071       S  0.07152076  0.58671344  0.61614103    -0.32480
S1072       S  0.15453352  0.67969274  0.69368151    -0.32480
H1073       H  0.15864952  0.66094847  0.71928782     0.28880
H1074       H  0.09703641  0.57761068  0.59438171     0.28880
H1075       H  0.07633338  0.59682185  0.68204540     0.19470
H1076       H  0.14647065  0.67226523  0.62847985     0.19480
C1077       C  0.10223807  0.62295335  0.87194131    -0.06350
C1078       C  0.12581553  0.63733265  0.88779419    -0.17480
C1079       C  0.12562346  0.63681493  0.92100194     0.10840
C1080       C  0.10187982  0.62072533  0.93877715    -0.06280
C1081       C  0.07770587  0.60767443  0.92266477    -0.17510
C1082       C  0.07730056  0.60909014  0.88996605     0.10880
S1083       S  0.15672801  0.65613139  0.93891449    -0.32480
S1084       S  0.04411223  0.59248508  0.87270318    -0.32640
H1085       H  0.04407497  0.61334275  0.84807938     0.28880
H1086       H  0.13607876  0.67461005  0.95962060     0.28880
H1087       H  0.14511706  0.64796793  0.87419359     0.19470
H1088       H  0.05852486  0.59622966  0.93562073     0.19480
C1089       C  0.97221793  0.00029278  0.77146433     0.02900
C1090       C  0.95511731  0.47209750  0.77211545    -0.13250
C1091       C  0.92306378  0.47207508  0.76771180     0.00400
C1092       C  0.90849995  0.49958506  0.76141904    -0.11780
C1093       C  0.92239391  0.02787682  0.76587749     0.02890
C1094       C  0.95448415  0.02845608  0.77027744    -0.11200
H1095       H  0.96584509  0.45021254  0.77624637     0.08490
H1096       H  0.88443179  0.49910005  0.75572804     0.06020
H1097       H  0.96481261  0.05082236  0.77252292     0.05860
In1098     In  0.61864683  0.10015021  0.77639372     1.36870
C1099       C  0.60675326  0.11722126  0.83721682     0.77350
O1100       O  0.56815227  0.08325208  0.77481939    -0.61090
O1101       O  0.60712538  0.05232184  0.76735939    -0.52010
C1102       C  0.61357654  0.12381608  0.72061459     0.70020
O1103       O  0.60143651  0.13762201  0.74572274    -0.46860
C1104       C  0.67739998  0.08052778  0.77932574     0.74720
O1105       O  0.61935262  0.13569454  0.81758800    -0.58720
O1106       O  0.65396926  0.06366180  0.77748009    -0.48810
O1107       O  0.59929628  0.09183093  0.82511447    -0.55150
C1108       C  0.57776952  0.05563507  0.76937549     0.84900
O1109       O  0.62953564  0.10012294  0.72468992    -0.57050
O1110       O  0.67127709  0.10912830  0.77887985    -0.60340
C1111       C  0.76640122  0.43508674  0.78328616     0.02900
C1112       C  0.76497026  0.46750011  0.78609361    -0.13250
C1113       C  0.73677386  0.48379571  0.79336372     0.00400
C1114       C  0.70930751  0.46675728  0.79706485    -0.11780
C1115       C  0.70933821  0.43488417  0.78968124     0.02890
C1116       C  0.73821489  0.41853702  0.78418892    -0.11200
H1117       H  0.78632074  0.48011837  0.78181649     0.08490
H1118       H  0.68725437  0.47841958  0.80421113     0.06020
H1119       H  0.73872051  0.39376534  0.77968664     0.05860
C1120       C  0.70843135  0.06636652  0.78308868     0.02900
C1121       C  0.70912267  0.03419766  0.78599918    -0.13250
C1122       C  0.73590051  0.01840199  0.79335619     0.00400
C1123       C  0.76269844  0.03567177  0.79720781    -0.11780
C1124       C  0.76435719  0.06688229  0.78946176     0.02890
C1125       C  0.73661294  0.08284099  0.78370579    -0.11200
H1126       H  0.68845777  0.02138081  0.78179175     0.08490
H1127       H  0.78323828  0.02450081  0.80473102     0.06020
H1128       H  0.73708715  0.10723083  0.77906134     0.05860
In1129     In  0.62146408  0.40107903  0.77687688     1.36870
C1130       C  0.61292860  0.38670474  0.83695859     0.77350
O1131       O  0.67344298  0.39253885  0.78220212    -0.61090
O1132       O  0.65493420  0.43829062  0.78274418    -0.52010
C1133       C  0.62305663  0.37392068  0.71989712     0.70020
O1134       O  0.60250195  0.36677948  0.74167096    -0.46860
C1135       C  0.57937863  0.44462884  0.76794792     0.74720
O1136       O  0.62064318  0.36599249  0.81561899    -0.58720
O1137       O  0.60866209  0.44705367  0.76291781    -0.48810
O1138       O  0.60609527  0.41239260  0.82645129    -0.55150
C1139       C  0.67857830  0.42115609  0.78499723     0.84900
O1140       O  0.64342181  0.39210304  0.72856891    -0.57050
O1141       O  0.57057599  0.41829812  0.77668601    -0.60340
In1142     In  0.85798554  0.40291342  0.77643787     1.36870
C1143       C  0.87143126  0.38195661  0.71763545     0.77350
O1144       O  0.80507260  0.39244464  0.78013330    -0.61090
O1145       O  0.82165549  0.43802638  0.77566367    -0.52010
C1146       C  0.85903268  0.39004193  0.83690031     0.70020
O1147       O  0.85862931  0.36833079  0.81594025    -0.46860
C1148       C  0.90189863  0.44542654  0.77171618     0.74720
O1149       O  0.87773535  0.36554306  0.74045298    -0.58720
O1150       O  0.87276630  0.45015729  0.77403942    -0.48810
O1151       O  0.85615502  0.40634970  0.72548430    -0.55150
C1152       C  0.79827162  0.42091903  0.77915158     0.84900
O1153       O  0.85987818  0.41659254  0.82606089    -0.57050
O1154       O  0.90990723  0.41731687  0.77303868    -0.60340
In1155     In  0.85567261  0.09802582  0.77716195     1.36870
C1156       C  0.86721358  0.11861793  0.71955235     0.77350
O1157       O  0.90749912  0.08261498  0.77554810    -0.61090
O1158       O  0.87185037  0.05102583  0.76607466    -0.52010
C1159       C  0.85636236  0.11583071  0.83729996     0.70020
O1160       O  0.85090973  0.13533570  0.81685757    -0.46860
C1161       C  0.79620657  0.07996022  0.78493504     0.74720
O1162       O  0.87391974  0.13477660  0.74350253    -0.58720
O1163       O  0.81995780  0.06258625  0.78468770    -0.48810
O1164       O  0.85270555  0.09429532  0.72578666    -0.55150
C1165       C  0.90056824  0.05497809  0.76873579     0.84900
O1166       O  0.86434202  0.08937881  0.82601468    -0.57050
O1167       O  0.80251226  0.10793598  0.78026275    -0.60340
C1168       C  0.50785166  0.00024715  0.77119587     0.02900
C1169       C  0.52491007  0.02842475  0.77103088    -0.13250
C1170       C  0.55781601  0.02809636  0.76689518     0.00400
C1171       C  0.57371334  0.99996514  0.76244152    -0.11780
C1172       C  0.55863709  0.47205432  0.76591573     0.02890
C1173       C  0.52571600  0.47198479  0.76988672    -0.11200
H1174       H  0.51342319  0.05068825  0.77409830     0.08490
H1175       H  0.59898240  0.99982792  0.75845810     0.06020
H1176       H  0.51484793  0.44979501  0.77158493     0.05860
C1177       C  0.98953218  0.23047391  0.02404532     0.02900
C1178       C  0.51671242  0.21281769  0.02991116    -0.13250
C1179       C  0.51647658  0.18032166  0.02879273     0.00400
C1180       C  0.98974542  0.16528951  0.02102572    -0.11780
C1181       C  0.96246003  0.18110222  0.01627795     0.02890
C1182       C  0.96207882  0.21363085  0.01791561    -0.11200
H1183       H  0.53794028  0.22352504  0.03596273     0.08490
H1184       H  0.98979952  0.14024170  0.01976760     0.06020
H1185       H  0.94049514  0.22502470  0.01374556     0.05860
C1186       C  0.92064134  0.47328675  0.03911963     0.02900
C1187       C  0.95062238  0.47480261  0.04951363    -0.13250
C1188       C  0.96865900  0.50120536  0.04582027     0.00400
C1189       C  0.95433416  0.02787778  0.03594519    -0.11780
C1190       C  0.92269454  0.02856454  0.03013475     0.02890
C1191       C  0.90569441  0.00077349  0.03097866    -0.11200
H1192       H  0.96061048  0.45431330  0.05867193     0.08490
H1193       H  0.96787800  0.04847647  0.03230280     0.06020
H1194       H  0.88205127  0.00030141  0.02408119     0.05860
C1195       C  0.55265130  0.02685919  0.04739234     0.02900
C1196       C  0.51992412  0.02656405  0.05334376    -0.13250
C1197       C  0.50311710  0.99981284  0.04824186     0.00400
C1198       C  0.51986265  0.47210897  0.04175503    -0.11780
C1199       C  0.55259695  0.47059891  0.04071132     0.02890
C1200       C  0.56938994  0.99844586  0.04209099    -0.11200
H1201       H  0.50729717  0.04790086  0.06002107     0.08490
H1202       H  0.50744493  0.45130849  0.03652042     0.06020
H1203       H  0.59469646  0.99805163  0.03877886     0.05860
In1204     In  0.89194854  0.11787887  0.02104685     1.36870
C1205       C  0.88127935  0.12331700  0.08339253     0.77350
O1206       O  0.88102443  0.06725515  0.02980561    -0.61090
O1207       O  0.92729222  0.08057686  0.01393390    -0.52010
C1208       C  0.86186966  0.12141669  0.96979733     0.70020
O1209       O  0.85478485  0.13957303  0.99352322    -0.46860
C1210       C  0.93492150  0.16135291  0.01315001     0.74720
O1211       O  0.85861666  0.12416256  0.06614312    -0.58720
O1212       O  0.93841075  0.13381376  0.00249159    -0.48810
O1213       O  0.90770498  0.11927789  0.06839872    -0.55150
C1214       C  0.90948717  0.05918897  0.02359223     0.84900
O1215       O  0.88211255  0.10111387  0.97363531    -0.57050
O1216       O  0.90753278  0.16821217  0.02491265    -0.60340
In1217     In  0.58593192  0.11535352  0.03611984     1.36870
C1218       C  0.61206061  0.12030601  0.08981596     0.77350
O1219       O  0.57161243  0.16623844  0.03092207    -0.61090
O1220       O  0.53768157  0.13234911  0.04251737    -0.52010
C1221       C  0.59971764  0.11729323  0.97379291     0.70020
O1222       O  0.61674431  0.13061773  0.99289353    -0.46860
C1223       C  0.56679112  0.05776038  0.04406396     0.74720
O1224       O  0.62884882  0.11591368  0.06379700    -0.58720
O1225       O  0.54979126  0.08175867  0.04838175    -0.48810
O1226       O  0.58351985  0.12516281  0.08745740    -0.55150
C1227       C  0.54291309  0.15978010  0.03502637     0.84900
O1228       O  0.57864844  0.10105367  0.98707352    -0.57050
O1229       O  0.59519117  0.06288482  0.03529428    -0.60340
In1230     In  0.58642155  0.38039794  0.03343951     1.36870
C1231       C  0.60974656  0.37903346  0.08894938     0.77350
O1232       O  0.59590803  0.43268519  0.03480317    -0.61090
O1233       O  0.54960041  0.41579398  0.03838123    -0.52010
C1234       C  0.60543322  0.38102481  0.97258562     0.70020
O1235       O  0.62291643  0.36959050  0.99181748    -0.46860
C1236       C  0.54516047  0.33506794  0.03103728     0.74720
O1237       O  0.62683145  0.37235500  0.06354412    -0.58720
O1238       O  0.53948413  0.36212342  0.04199233    -0.48810
O1239       O  0.58158739  0.38467986  0.08547115    -0.55150
C1240       C  0.56689115  0.43911119  0.03775715     0.84900
O1241       O  0.57943336  0.39135561  0.98475786    -0.57050
O1242       O  0.57387393  0.32912787  0.02385781    -0.60340
In1243     In  0.89309015  0.38284483  0.02635405     1.36870
C1244       C  0.87186575  0.38276140  0.97013993     0.77350
O1245       O  0.88042333  0.43465434  0.03258076    -0.61090
O1246       O  0.92774245  0.41912511  0.02981291    -0.52010
C1247       C  0.87727167  0.38220468  0.08790196     0.70020
O1248       O  0.85627793  0.38106657  0.06863278    -0.46860
C1249       C  0.93557007  0.33725721  0.01821226     0.74720
O1250       O  0.85593626  0.37050197  0.99300781    -0.58720
O1251       O  0.93990547  0.36505538  0.01155206    -0.48810
O1252       O  0.89753775  0.39369374  0.97663442    -0.55150
C1253       C  0.90879514  0.44175379  0.03367869     0.84900
O1254       O  0.90481257  0.38080403  0.07489677    -0.57050
O1255       O  0.90739722  0.33119931  0.02706783    -0.60340
C1256       C  0.98994770  0.26577996  0.02385352     0.02900
C1257       C  0.51841000  0.28239324  0.02601058    -0.13250
C1258       C  0.51867772  0.31475794  0.02479556     0.00400
C1259       C  0.99164410  0.33033641  0.01873315    -0.11780
C1260       C  0.96299950  0.31591957  0.01850495     0.02890
C1261       C  0.96190996  0.28366413  0.02158411    -0.11200
H1262       H  0.54030017  0.27106168  0.02906054     0.08490
H1263       H  0.99274704  0.35510302  0.01611133     0.06020
H1264       H  0.93923022  0.27326373  0.02225318     0.05860
C1265       C  0.73951116  0.01736543  0.52904931     0.02900
C1266       C  0.76771092  0.03400052  0.53285898    -0.13250
C1267       C  0.76732936  0.06646201  0.53593244     0.00400
C1268       C  0.73961365  0.08246807  0.53321368    -0.11780
C1269       C  0.71198443  0.06779603  0.52805285     0.02890
C1270       C  0.71150168  0.03529715  0.52681470    -0.11200
H1271       H  0.78996107  0.02255803  0.53375816     0.08490
H1272       H  0.73960596  0.10751086  0.53480040     0.06020
H1273       H  0.68936215  0.02486617  0.52368935     0.05860
In1274     In  0.64249490  0.13435375  0.52648146     1.36870
C1275       C  0.62237812  0.13414350  0.58724307     0.77350
O1276       O  0.65661350  0.08342577  0.53269202    -0.61090
O1277       O  0.68999893  0.11595359  0.51588943    -0.52010
C1278       C  0.62330536  0.12430958  0.46955725     0.70020
O1279       O  0.60494743  0.12074466  0.49430742    -0.46860
C1280       C  0.65845829  0.19357305  0.53048277     0.74720
O1281       O  0.60360401  0.12949703  0.56615922    -0.58720
O1282       O  0.67709114  0.17074144  0.52802656    -0.48810
O1283       O  0.65038010  0.13779563  0.57676585    -0.55150
C1284       C  0.68506026  0.08887518  0.52469602     0.84900
O1285       O  0.64972909  0.13450884  0.47449404    -0.57050
O1286       O  0.63013200  0.18657117  0.52874561    -0.60340
C1287       C  0.67069070  0.22507845  0.53558938     0.02900
C1288       C  0.70077754  0.22633768  0.54584848    -0.13250
C1289       C  0.71874291  0.25285088  0.54292858     0.00400
C1290       C  0.70439197  0.27977153  0.53382887    -0.11780
C1291       C  0.67269459  0.28067757  0.52827495     0.02890
C1292       C  0.65568815  0.25285331  0.52834746    -0.11200
H1293       H  0.71084971  0.20569830  0.55461165     0.08490
H1294       H  0.71796843  0.30041921  0.53072909     0.06020
H1295       H  0.63189784  0.25266966  0.52186072     0.05860
C1296       C  0.80251558  0.27838057  0.54741632     0.02900
C1297       C  0.76972343  0.27811348  0.55221639    -0.13250
C1298       C  0.75310725  0.25149724  0.54577943     0.00400
C1299       C  0.76997376  0.22393954  0.53877945    -0.11780
C1300       C  0.80257572  0.22230818  0.53895396     0.02890
C1301       C  0.81930717  0.25003529  0.54171247    -0.11200
H1302       H  0.75702913  0.29940147  0.55895465     0.08490
H1303       H  0.75778656  0.20329506  0.53243566     0.06020
H1304       H  0.84463166  0.24959768  0.53947478     0.05860
In1305     In  0.83550389  0.13194353  0.53541988     1.36870
C1306       C  0.86162739  0.13266174  0.58941414     0.77350
O1307       O  0.84557399  0.18401584  0.53280949    -0.61090
O1308       O  0.79914567  0.16769808  0.53967507    -0.52010
C1309       C  0.84660288  0.12677336  0.47304023     0.70020
O1310       O  0.86851427  0.12223739  0.49065467    -0.46860
C1311       C  0.79463053  0.08638350  0.54010122     0.74720
O1312       O  0.87719542  0.12331159  0.56380654    -0.58720
O1313       O  0.79016657  0.11337128  0.55182029    -0.48810
O1314       O  0.83374493  0.14022464  0.58672040    -0.55150
C1315       C  0.81664342  0.19075046  0.53686718     0.84900
O1316       O  0.82072622  0.13438496  0.48780241    -0.57050
O1317       O  0.82255928  0.08052488  0.52915827    -0.60340
In1318     In  0.83640824  0.36656293  0.53625251     1.36870
C1319       C  0.86649637  0.37122608  0.58739019     0.77350
O1320       O  0.82185897  0.41733992  0.53109348    -0.61090
O1321       O  0.78800788  0.38346883  0.54325099    -0.52010
C1322       C  0.84878085  0.36809446  0.47390612     0.70020
O1323       O  0.86622818  0.38160989  0.49244762    -0.46860
C1324       C  0.81690625  0.30920571  0.54519954     0.74720
O1325       O  0.88093707  0.36343650  0.56086562    -0.58720
O1326       O  0.80076980  0.33337982  0.55255338    -0.48810
O1327       O  0.83855245  0.37980443  0.58656721    -0.55150
C1328       C  0.79316730  0.41090939  0.53562125     0.84900
O1329       O  0.82772445  0.35224024  0.48774591    -0.57050
O1330       O  0.84454722  0.31411669  0.53369863    -0.60340
In1331     In  0.64072131  0.37027653  0.52208268     1.36870
C1332       C  0.62706847  0.37164869  0.58451064     0.77350
O1333       O  0.63062661  0.31885461  0.52753869    -0.61090
O1334       O  0.67707122  0.33384772  0.51619512    -0.52010
C1335       C  0.61267579  0.37605069  0.46978166     0.70020
O1336       O  0.60282707  0.39127315  0.49491340    -0.46860
C1337       C  0.68438817  0.41316448  0.51584156     0.74720
O1338       O  0.60570402  0.36809455  0.56597824    -0.58720
O1339       O  0.68789408  0.38539272  0.50593292    -0.48810
O1340       O  0.65353637  0.37688458  0.57069576    -0.55150
C1341       C  0.65935955  0.31158512  0.52309203     0.84900
O1342       O  0.63488741  0.35755613  0.47252533    -0.57050
O1343       O  0.65666772  0.42057034  0.52641411    -0.60340
C1344       C  0.73940565  0.48197865  0.52720394     0.02900
C1345       C  0.71173661  0.46527306  0.52146781    -0.13250
C1346       C  0.71213696  0.43276794  0.51883558     0.00400
C1347       C  0.73973657  0.41679947  0.52226427    -0.11780
C1348       C  0.76663726  0.43161236  0.52988845     0.02890
C1349       C  0.76684197  0.46410946  0.53180057    -0.11200
H1350       H  0.68982044  0.47668651  0.51876795     0.08490
H1351       H  0.73994834  0.39177213  0.52025500     0.06020
H1352       H  0.78821001  0.47461386  0.53768852     0.05860
C1353       C  0.72203228  0.24918117  0.27415768     0.02900
C1354       C  0.70514056  0.22106810  0.27840210    -0.13250
C1355       C  0.67234552  0.22086756  0.27914412     0.00400
C1356       C  0.65640477  0.24809685  0.27468298    -0.11780
C1357       C  0.67118785  0.27619438  0.27183791     0.02890
C1358       C  0.70401308  0.27693897  0.27148846    -0.11200
H1359       H  0.71658324  0.19932789  0.28157678     0.08490
H1360       H  0.63123572  0.24743913  0.27423336     0.06020
H1361       H  0.71476221  0.29907706  0.26853283     0.05860
C1362       C  0.51656932  0.18401424  0.28581299     0.02900
C1363       C  0.98845900  0.16725966  0.28802194    -0.13250
C1364       C  0.95961549  0.18335753  0.29530303     0.00400
C1365       C  0.95974660  0.21513322  0.30313929    -0.11780
C1366       C  0.98686370  0.23235469  0.29776734     0.02890
C1367       C  0.51494873  0.21638794  0.28867402    -0.11200
H1368       H  0.98895998  0.14250953  0.28337584     0.08490
H1369       H  0.93796795  0.22677687  0.31150840     0.06020
H1370       H  0.53602272  0.22921190  0.28327976     0.05860
C1371       C  0.95757306  0.31430676  0.28686144     0.02900
C1372       C  0.95832102  0.28231295  0.29080392    -0.13250
C1373       C  0.98547577  0.26685720  0.29778701     0.00400
C1374       C  0.51228705  0.28425412  0.30086610    -0.11780
C1375       C  0.51370469  0.31524325  0.29246592     0.02890
C1376       C  0.98577625  0.33089998  0.28674182    -0.11200
H1377       H  0.93750299  0.26934151  0.28752636     0.08490
H1378       H  0.53304601  0.27318794  0.30807593     0.06020
H1379       H  0.98616367  0.35509872  0.28126462     0.05860
In1380     In  0.60788554  0.15153141  0.28161723     1.36870
C1381       C  0.60671296  0.12925494  0.33901910     0.77350
O1382       O  0.65979056  0.16588879  0.27634424    -0.61090
O1383       O  0.62361187  0.19768046  0.29305852    -0.52010
C1384       C  0.61976081  0.13362148  0.22134628     0.70020
O1385       O  0.61847522  0.11405338  0.24295054    -0.46860
C1386       C  0.54848396  0.16996190  0.28149212     0.74720
O1387       O  0.61857472  0.11355166  0.31488781    -0.58720
O1388       O  0.57198076  0.18703433  0.27849612    -0.48810
O1389       O  0.59619251  0.15534074  0.33318861    -0.55150
C1390       C  0.65212208  0.19363547  0.28382390     0.84900
O1391       O  0.61382175  0.16101851  0.23096150    -0.57050
O1392       O  0.55514448  0.14149860  0.28256378    -0.60340
In1393     In  0.87165948  0.15138712  0.28008032     1.36870
C1394       C  0.85648983  0.13151592  0.33734686     0.77350
O1395       O  0.92377429  0.14177437  0.28424932    -0.61090
O1396       O  0.90455293  0.18705247  0.29254899    -0.52010
C1397       C  0.87518546  0.13152958  0.22016463     0.70020
O1398       O  0.85740893  0.11839784  0.24095398    -0.46860
C1399       C  0.82972265  0.19501463  0.27121590     0.74720
O1400       O  0.86883955  0.11317923  0.31555892    -0.58720
O1401       O  0.85856057  0.19912434  0.27299716    -0.48810
O1402       O  0.85055653  0.15816856  0.32873246    -0.55150
C1403       C  0.92862848  0.16987260  0.29112671     0.84900
O1404       O  0.89256883  0.15157266  0.23113237    -0.57050
O1405       O  0.82128200  0.16735923  0.27439517    -0.60340
In1406     In  0.86877333  0.34875342  0.27684130     1.36870
C1407       C  0.86922848  0.37667562  0.22255835     0.77350
O1408       O  0.92038490  0.35695845  0.28372985    -0.61090
O1409       O  0.90379326  0.31143160  0.27709013    -0.52010
C1410       C  0.85676422  0.36486434  0.33753168     0.70020
O1411       O  0.86439707  0.38502675  0.31746969    -0.46860
C1412       C  0.82757035  0.30508937  0.26627802     0.74720
O1413       O  0.84776133  0.38251195  0.24454155    -0.58720
O1414       O  0.85676522  0.30267192  0.25956107    -0.48810
O1415       O  0.89065992  0.35908728  0.22975317    -0.55150
C1416       C  0.92672290  0.32830456  0.28207431     0.84900
O1417       O  0.85479253  0.33791551  0.32605009    -0.57050
O1418       O  0.81831498  0.33157622  0.27696765    -0.60340
In1419     In  0.60483785  0.34640610  0.27786113     1.36870
C1420       C  0.60487922  0.36485851  0.33784563     0.77350
O1421       O  0.55165969  0.35620828  0.28205714    -0.61090
O1422       O  0.56932435  0.31087578  0.28619005    -0.52010
C1423       C  0.61526441  0.36594796  0.21976878     0.70020
O1424       O  0.62290818  0.38233957  0.24318183    -0.46860
C1425       C  0.64981352  0.30339833  0.27132071     0.74720
O1426       O  0.59907070  0.38405937  0.31721697    -0.58720
O1427       O  0.62144357  0.29939366  0.26692996    -0.48810
O1428       O  0.61435488  0.33879397  0.32674015    -0.55150
C1429       C  0.54550135  0.32825561  0.28698079     0.84900
O1430       O  0.60050887  0.34197065  0.22681196    -0.57050
O1431       O  0.65655409  0.33119749  0.27762247    -0.60340
C1432       C  0.75781469  0.24941780  0.27170936     0.02900
C1433       C  0.77592273  0.22138373  0.27119404    -0.13250
C1434       C  0.80879962  0.22169411  0.26672083     0.00400
C1435       C  0.82358876  0.24936338  0.26062024    -0.11780
C1436       C  0.80761093  0.27747531  0.26442971     0.02890
C1437       C  0.77472702  0.27767797  0.27007687    -0.11200
H1438       H  0.76533858  0.19924889  0.27459090     0.08490
H1439       H  0.84880158  0.24918036  0.25572068     0.06020
H1440       H  0.76310015  0.29988520  0.27344422     0.05860
C1441       C  0.60038636  0.37844099  0.43878321    -0.06350
C1442       C  0.59013402  0.35090264  0.42530821    -0.17480
C1443       C  0.58983411  0.34667327  0.39253936     0.10840
C1444       C  0.59993766  0.37076884  0.37252299    -0.06280
C1445       C  0.60746708  0.39939427  0.38615271    -0.17510
C1446       C  0.60792598  0.40340830  0.41914096     0.10880
S1447       S  0.57694287  0.30999619  0.37686895    -0.32480
S1448       S  0.62194189  0.43945536  0.43442618    -0.32480
H1449       H  0.60308910  0.43935287  0.46332488     0.28880
H1450       H  0.57882262  0.29337981  0.40449896     0.28880
H1451       H  0.58441845  0.33183560  0.44049392     0.19470
H1452       H  0.61493467  0.41800937  0.37102095     0.19480
C1453       C  0.85083586  0.37049480  0.43885073    -0.06350
C1454       C  0.82919742  0.35333553  0.42274041    -0.17480
C1455       C  0.82883917  0.35373098  0.39001480     0.10840
C1456       C  0.85137955  0.37079266  0.37205166    -0.06280
C1457       C  0.87229517  0.38908678  0.38782074    -0.17510
C1458       C  0.87191849  0.38953341  0.42104562     0.10880
S1459       S  0.79890691  0.33166225  0.37259871    -0.32480
S1460       S  0.89903181  0.41444839  0.43896710    -0.32480
H1461       H  0.87569772  0.42885162  0.46026851     0.28880
H1462       H  0.79600581  0.35139141  0.34740824     0.28880
H1463       H  0.81205071  0.33933352  0.43568560     0.19470
H1464       H  0.88969904  0.40222862  0.37417407     0.19480
C1465       C  0.85088619  0.12429300  0.37103128    -0.06350
C1466       C  0.87400011  0.10828882  0.38559589    -0.17480
C1467       C  0.87323947  0.10780602  0.41881618     0.10840
C1468       C  0.84934458  0.12436838  0.43786524    -0.06280
C1469       C  0.82565738  0.13911875  0.42292847    -0.17510
C1470       C  0.82586789  0.13885105  0.39012987     0.10880
S1471       S  0.90313470  0.08570937  0.43524553    -0.32480
S1472       S  0.79362758  0.15820352  0.37416295    -0.32480
H1473       H  0.79399734  0.13877297  0.34676766     0.28880
H1474       H  0.88224604  0.07243163  0.45824503     0.28880
H1475       H  0.89336686  0.09716809  0.37111803     0.19470
H1476       H  0.80667563  0.15141043  0.43689242     0.19480
C1477       C  0.61548054  0.11760111  0.43690337    -0.06350
C1478       C  0.58714806  0.12874313  0.42760940    -0.17480
C1479       C  0.58231722  0.12978048  0.39545971     0.10840
C1480       C  0.60643210  0.11969328  0.37205968    -0.06280
C1481       C  0.63339525  0.10567797  0.38152320    -0.17510
C1482       C  0.63810398  0.10440284  0.41364427     0.10880
S1483       S  0.54545513  0.14558827  0.38577122    -0.32480
S1484       S  0.67417645  0.08689448  0.42339279    -0.32480
H1485       H  0.66190704  0.07647153  0.45295550     0.28880
H1486       H  0.54493768  0.12836694  0.35701570     0.28880
H1487       H  0.56951522  0.13843929  0.44527585     0.19470
H1488       H  0.65183516  0.09759794  0.36385654     0.19480
C1489       C  0.87208239  0.38586194  0.12301565    -0.06350
C1490       C  0.89887503  0.39129997  0.13909040    -0.17480
C1491       C  0.89768126  0.39213255  0.17194641     0.10840
C1492       C  0.86912907  0.38685576  0.18989421    -0.06280
C1493       C  0.84171684  0.38389881  0.17436392    -0.17510
C1494       C  0.84283097  0.38380454  0.14109804     0.10880
S1495       S  0.93392699  0.39858163  0.18949435    -0.32480
S1496       S  0.80663973  0.37938586  0.12336933    -0.32480
H1497       H  0.81172799  0.40505965  0.10432400     0.28880
H1498       H  0.91988719  0.41214045  0.21809537     0.28880
H1499       H  0.92144660  0.39437572  0.12601993     0.19470
H1500       H  0.81967939  0.37976496  0.18801390     0.19480
C1501       C  0.62048412  0.37994029  0.12087776    -0.06350
C1502       C  0.63352440  0.35306926  0.13171807    -0.17480
C1503       C  0.63482368  0.34926469  0.16416539     0.10840
C1504       C  0.62289791  0.37284538  0.18626042    -0.06280
C1505       C  0.61276818  0.40091238  0.17522836    -0.17510
C1506       C  0.61143295  0.40468779  0.14273578     0.10880
S1507       S  0.65001747  0.31291804  0.17610089    -0.32480
S1508       S  0.59595575  0.44085051  0.13065885    -0.32480
H1509       H  0.61182949  0.43943271  0.10007822     0.28880
H1510       H  0.66112309  0.32496224  0.20413752     0.28880
H1511       H  0.64046163  0.33404038  0.11512506     0.19470
H1512       H  0.60372212  0.41907640  0.19198445     0.19480
C1513       C  0.62330929  0.11839029  0.12129942    -0.06350
C1514       C  0.63885256  0.14359012  0.13359017    -0.17480
C1515       C  0.64082161  0.14746410  0.16624657     0.10840
C1516       C  0.62636276  0.12595441  0.18714048    -0.06280
C1517       C  0.61344026  0.09927074  0.17446598    -0.17510
C1518       C  0.61177519  0.09530172  0.14178573     0.10880
S1519       S  0.66077121  0.18115405  0.17983536    -0.32480
S1520       S  0.59221054  0.06158914  0.12772244    -0.32480
H1521       H  0.60922134  0.05980645  0.09772344     0.28880
H1522       H  0.67152552  0.16725517  0.20632481     0.28880
H1523       H  0.64766057  0.16136078  0.11797605     0.19470
H1524       H  0.60253363  0.08255646  0.19015475     0.19480
C1525       C  0.87575517  0.12623000  0.18537668    -0.06350
C1526       C  0.90259567  0.13592977  0.16726172    -0.17480
C1527       C  0.90386255  0.13716290  0.13448928     0.10840
C1528       C  0.87842894  0.12638104  0.11839403    -0.06280
C1529       C  0.85156420  0.11615296  0.13621732    -0.17510
C1530       C  0.84969810  0.11661531  0.16954275     0.10880
S1531       S  0.93813609  0.15468006  0.11512017    -0.32480
S1532       S  0.81309737  0.10630643  0.19032250    -0.32480
H1533       H  0.81125354  0.13297027  0.21047637     0.28880
H1534       H  0.92145394  0.17116757  0.09399610     0.28880
H1535       H  0.92254617  0.14413664  0.17887263     0.19470
H1536       H  0.83188250  0.10799182  0.12418667     0.19480
C1537       C  0.87551571  0.12622658  0.68632260    -0.06350
C1538       C  0.86505637  0.15427623  0.67557541    -0.17480
C1539       C  0.86392794  0.15840067  0.64311734     0.10840
C1540       C  0.87333369  0.13392769  0.62098330    -0.06280
C1541       C  0.88708151  0.10728736  0.63158303    -0.17510
C1542       C  0.88831311  0.10321877  0.66401673     0.10880
S1543       S  0.84802273  0.19455793  0.63148017    -0.32480
S1544       S  0.90447808  0.06720641  0.67568327    -0.32480
H1545       H  0.91480810  0.07936388  0.70404391     0.28880
H1546       H  0.86365633  0.19344032  0.60078127     0.28880
H1547       H  0.85550186  0.17208625  0.69249484     0.19470
H1548       H  0.89443804  0.08850284  0.61484299     0.19480
C1549       C  0.85191928  0.12122494  0.87206733    -0.06350
C1550       C  0.84227429  0.09569184  0.88976194    -0.17480
C1551       C  0.84116716  0.09664576  0.92265120     0.10840
C1552       C  0.84980687  0.12375428  0.93872604    -0.06280
C1553       C  0.85644438  0.15037741  0.92154366    -0.17510
C1554       C  0.85792831  0.14930091  0.88824591     0.10880
S1555       S  0.83097592  0.06165089  0.94272104    -0.32480
S1556       S  0.87078578  0.18323021  0.86792512    -0.32480
H1557       H  0.89137267  0.16710276  0.84510722     0.28880
H1558       H  0.82109454  0.07631166  0.97219301     0.28880
H1559       H  0.83654582  0.07423779  0.87778794     0.19470
H1560       H  0.86374028  0.17109148  0.93375726     0.19480
C1561       C  0.88104112  0.37485517  0.68393364    -0.06350
C1562       C  0.87229711  0.34687459  0.67007214    -0.17480
C1563       C  0.87140358  0.34364018  0.63718041     0.10840
C1564       C  0.87944977  0.36883419  0.61793742    -0.06280
C1565       C  0.89118942  0.39557550  0.63152092    -0.17510
C1566       C  0.89242569  0.39871502  0.66424810     0.10880
S1567       S  0.85600131  0.30833033  0.62148192    -0.32480
S1568       S  0.90629262  0.43482472  0.67981446    -0.32480
H1569       H  0.91806093  0.42195319  0.70631135     0.28880
H1570       H  0.87211271  0.30990314  0.59119889     0.28880
H1571       H  0.86345958  0.32857108  0.68497798     0.19470
H1572       H  0.89708565  0.41503261  0.61691081     0.19480
C1573       C  0.85911322  0.38664066  0.87161748    -0.06350
C1574       C  0.86806658  0.41275740  0.88906346    -0.17480
C1575       C  0.86923141  0.41263429  0.92162694     0.10840
C1576       C  0.86248622  0.38534109  0.93783530    -0.06280
C1577       C  0.85233660  0.35935492  0.92103830    -0.17510
C1578       C  0.85005862  0.35991093  0.88812737     0.10880
S1579       S  0.88005402  0.44827186  0.94104143    -0.32480
S1580       S  0.83530626  0.32619015  0.86884671    -0.32480
H1581       H  0.81562077  0.34308184  0.85084483     0.28880
H1582       H  0.86172689  0.44370376  0.96968834     0.28880
H1583       H  0.87447521  0.43382354  0.87727433     0.19470
H1584       H  0.84712121  0.33832236  0.93334917     0.19480
C1585       C  0.62274698  0.36479573  0.68606599    -0.06350
C1586       C  0.59462202  0.36740667  0.67173264    -0.17480
C1587       C  0.59472220  0.36952904  0.63867280     0.10840
C1588       C  0.62352318  0.36843528  0.61946029    -0.06280
C1589       C  0.65124012  0.36347845  0.63398526    -0.17510
C1590       C  0.65116248  0.36149148  0.66666096     0.10880
S1591       S  0.55777901  0.37593316  0.62297430    -0.32480
S1592       S  0.68847610  0.35585846  0.68225880    -0.32480
H1593       H  0.67635419  0.34084982  0.70946470     0.28880
H1594       H  0.56859343  0.40052379  0.60441568     0.28880
H1595       H  0.57273223  0.37048244  0.68647174     0.19470
H1596       H  0.67354801  0.36141537  0.61980806     0.19480
C1597       C  0.61331103  0.38346577  0.87169986    -0.06350
C1598       C  0.60566187  0.41021575  0.89088165    -0.17480
C1599       C  0.60624419  0.41048327  0.92355266     0.10840
C1600       C  0.61344212  0.38308076  0.93833371    -0.06280
C1601       C  0.62218565  0.35642196  0.91959606    -0.17510
C1602       C  0.62275987  0.35648117  0.88636893     0.10880
S1603       S  0.59716607  0.44672306  0.94520131    -0.32480
S1604       S  0.63518874  0.32150151  0.86437176    -0.32480
H1605       H  0.65861906  0.33626350  0.84528796     0.28880
H1606       H  0.61628320  0.44107564  0.96961712     0.28880
H1607       H  0.59935049  0.43158896  0.88044475     0.19470
H1608       H  0.62752801  0.33523733  0.93090218     0.19480
C1609       C  0.60946488  0.13301038  0.68837125    -0.06350
C1610       C  0.59082277  0.11410093  0.67038207    -0.17480
C1611       C  0.59301489  0.11489963  0.63725508     0.10840
C1612       C  0.61377433  0.13561590  0.62179370    -0.06280
C1613       C  0.63054409  0.15614957  0.64012550    -0.17510
C1614       C  0.62910062  0.15470000  0.67308368     0.10880
S1615       S  0.57152071  0.08671352  0.61614102    -0.32480
S1616       S  0.65453364  0.17969270  0.69368145    -0.32480
H1617       H  0.65864945  0.16094856  0.71928790     0.28880
H1618       H  0.59703635  0.07761071  0.59438170     0.28880
H1619       H  0.57633334  0.09682195  0.68204539     0.19470
H1620       H  0.64647076  0.17226519  0.62847980     0.19480
C1621       C  0.60223809  0.12295331  0.87194127    -0.06350
C1622       C  0.62581553  0.13733264  0.88779416    -0.17480
C1623       C  0.62562345  0.13681492  0.92100191     0.10840
C1624       C  0.60187983  0.12072530  0.93877711    -0.06280
C1625       C  0.57770589  0.10767438  0.92266473    -0.17510
C1626       C  0.57730059  0.10909008  0.88996601     0.10880
S1627       S  0.65672798  0.15613142  0.93891446    -0.32480
S1628       S  0.54411228  0.09248498  0.87270313    -0.32640
H1629       H  0.54407499  0.11334265  0.84807934     0.28880
H1630       H  0.63607870  0.17461006  0.95962057     0.28880
H1631       H  0.64511705  0.14796794  0.87419356     0.19470
H1632       H  0.55852489  0.09622959  0.93562069     0.19480
C1633       C  0.97221793  0.50029278  0.77146432     0.02900
C1634       C  0.95511732  0.97209750  0.77211545    -0.13250
C1635       C  0.92306378  0.97207509  0.76771181     0.00400
C1636       C  0.90849996  0.99958507  0.76141906    -0.11780
C1637       C  0.92239390  0.52787682  0.76587747     0.02890
C1638       C  0.95448414  0.52845608  0.77027742    -0.11200
H1639       H  0.96584510  0.95021253  0.77624635     0.08490
H1640       H  0.88443179  0.99910006  0.75572806     0.06020
H1641       H  0.96481260  0.55082236  0.77252289     0.05860
In1642     In  0.61864682  0.60015022  0.77639377     1.36870
C1643       C  0.60675324  0.61722130  0.83721686     0.77350
O1644       O  0.56815225  0.58325209  0.77481942    -0.61090
O1645       O  0.60712536  0.55232184  0.76735952    -0.52010
C1646       C  0.61357651  0.62381605  0.72061463     0.70020
O1647       O  0.60143655  0.63762203  0.74572278    -0.46860
C1648       C  0.67739997  0.58052777  0.77932578     0.74720
O1649       O  0.61935264  0.63569455  0.81758805    -0.58720
O1650       O  0.65396924  0.56366180  0.77748017    -0.48810
O1651       O  0.59929621  0.59183098  0.82511452    -0.55150
C1652       C  0.57776950  0.55563507  0.76937557     0.84900
O1653       O  0.62953556  0.60012287  0.72468997    -0.57050
O1654       O  0.67127709  0.60912830  0.77887986    -0.60340
C1655       C  0.76640123  0.93508674  0.78328616     0.02900
C1656       C  0.76497027  0.96750011  0.78609360    -0.13250
C1657       C  0.73677387  0.98379571  0.79336371     0.00400
C1658       C  0.70930752  0.96675729  0.79706485    -0.11780
C1659       C  0.70933822  0.93488417  0.78968124     0.02890
C1660       C  0.73821490  0.91853702  0.78418892    -0.11200
H1661       H  0.78632074  0.98011837  0.78181648     0.08490
H1662       H  0.68725438  0.97841959  0.80421112     0.06020
H1663       H  0.73872052  0.89376534  0.77968664     0.05860
C1664       C  0.70843134  0.56636652  0.78308870     0.02900
C1665       C  0.70912266  0.53419766  0.78599921    -0.13250
C1666       C  0.73590051  0.51840199  0.79335621     0.00400
C1667       C  0.76269844  0.53567176  0.79720782    -0.11780
C1668       C  0.76435718  0.56688229  0.78946177     0.02890
C1669       C  0.73661294  0.58284098  0.78370580    -0.11200
H1670       H  0.68845776  0.52138080  0.78179178     0.08490
H1671       H  0.78323828  0.52450081  0.80473103     0.06020
H1672       H  0.73708714  0.60723083  0.77906135     0.05860
In1673     In  0.62146409  0.90107904  0.77687690     1.36870
C1674       C  0.61292860  0.88670475  0.83695861     0.77350
O1675       O  0.67344298  0.89253885  0.78220214    -0.61090
O1676       O  0.65493420  0.93829062  0.78274418    -0.52010
C1677       C  0.62305662  0.87392068  0.71989714     0.70020
O1678       O  0.60250194  0.86677949  0.74167099    -0.46860
C1679       C  0.57937864  0.94462885  0.76794793     0.74720
O1680       O  0.62064317  0.86599249  0.81561901    -0.58720
O1681       O  0.60866210  0.94705368  0.76291782    -0.48810
O1682       O  0.60609528  0.91239261  0.82645130    -0.55150
C1683       C  0.67857831  0.92115609  0.78499724     0.84900
O1684       O  0.64342182  0.89210303  0.72856893    -0.57050
O1685       O  0.57057599  0.91829813  0.77668602    -0.60340
In1686     In  0.85798554  0.90291342  0.77643787     1.36870
C1687       C  0.87143127  0.88195661  0.71763545     0.77350
O1688       O  0.80507261  0.89244464  0.78013330    -0.61090
O1689       O  0.82165550  0.93802639  0.77566366    -0.52010
C1690       C  0.85903268  0.89004193  0.83690031     0.70020
O1691       O  0.85862931  0.86833080  0.81594025    -0.46860
C1692       C  0.90189863  0.94542655  0.77171618     0.74720
O1693       O  0.87773536  0.86554306  0.74045298    -0.58720
O1694       O  0.87276631  0.95015729  0.77403941    -0.48810
O1695       O  0.85615503  0.90634970  0.72548430    -0.55150
C1696       C  0.79827162  0.92091903  0.77915158     0.84900
O1697       O  0.85987818  0.91659255  0.82606089    -0.57050
O1698       O  0.90990724  0.91731687  0.77303869    -0.60340
In1699     In  0.85567260  0.59802581  0.77716193     1.36870
C1700       C  0.86721357  0.61861793  0.71955233     0.77350
O1701       O  0.90749911  0.58261498  0.77554808    -0.61090
O1702       O  0.87185037  0.55102583  0.76607462    -0.52010
C1703       C  0.85636236  0.61583070  0.83729993     0.70020
O1704       O  0.85090973  0.63533569  0.81685755    -0.46860
C1705       C  0.79620657  0.57996021  0.78493503     0.74720
O1706       O  0.87391973  0.63477660  0.74350251    -0.58720
O1707       O  0.81995779  0.56258624  0.78468768    -0.48810
O1708       O  0.85270554  0.59429532  0.72578663    -0.55150
C1709       C  0.90056824  0.55497809  0.76873577     0.84900
O1710       O  0.86434202  0.58937881  0.82601465    -0.57050
O1711       O  0.80251226  0.60793597  0.78026274    -0.60340
C1712       C  0.50785165  0.50024715  0.77119589     0.02900
C1713       C  0.52491006  0.52842475  0.77103093    -0.13250
C1714       C  0.55781600  0.52809636  0.76689523     0.00400
C1715       C  0.57371333  0.49996514  0.76244156    -0.11780
C1716       C  0.55863709  0.97205432  0.76591572     0.02890
C1717       C  0.52571601  0.97198479  0.76988673    -0.11200
H1718       H  0.51342317  0.55068825  0.77409837     0.08490
H1719       H  0.59898239  0.49982792  0.75845814     0.06020
H1720       H  0.51484794  0.94979502  0.77158497     0.05860
C1721       C  0.98953218  0.73047391  0.02404531     0.02900
C1722       C  0.51671241  0.71281769  0.02991117    -0.13250
C1723       C  0.51647657  0.68032166  0.02879276     0.00400
C1724       C  0.98974542  0.66528951  0.02102572    -0.11780
C1725       C  0.96246003  0.68110222  0.01627793     0.02890
C1726       C  0.96207882  0.71363085  0.01791559    -0.11200
H1727       H  0.53794027  0.72352504  0.03596276     0.08490
H1728       H  0.98979952  0.64024170  0.01976760     0.06020
H1729       H  0.94049514  0.72502470  0.01374553     0.05860
C1730       C  0.92064135  0.97328675  0.03911964     0.02900
C1731       C  0.95062238  0.97480261  0.04951363    -0.13250
C1732       C  0.96865901  0.00120535  0.04582028     0.00400
C1733       C  0.95433416  0.52787779  0.03594518    -0.11780
C1734       C  0.92269454  0.52856454  0.03013474     0.02890
C1735       C  0.90569441  0.50077349  0.03097865    -0.11200
H1736       H  0.96061048  0.95431329  0.05867193     0.08490
H1737       H  0.96787800  0.54847647  0.03230279     0.06020
H1738       H  0.88205126  0.50030141  0.02408118     0.05860
C1739       C  0.55265130  0.52685920  0.04739233     0.02900
C1740       C  0.51992412  0.52656405  0.05334373    -0.13250
C1741       C  0.50311711  0.49981284  0.04824181     0.00400
C1742       C  0.51986264  0.97210896  0.04175508    -0.11780
C1743       C  0.55259694  0.97059890  0.04071135     0.02890
C1744       C  0.56938994  0.49844587  0.04209098    -0.11200
H1745       H  0.50729716  0.54790086  0.06002104     0.08490
H1746       H  0.50744492  0.95130848  0.03652048     0.06020
H1747       H  0.59469646  0.49805164  0.03877886     0.05860
In1748     In  0.89194854  0.61787887  0.02104682     1.36870
C1749       C  0.88127935  0.62331701  0.08339250     0.77350
O1750       O  0.88102443  0.56725515  0.02980559    -0.61090
O1751       O  0.92729222  0.58057686  0.01393388    -0.52010
C1752       C  0.86186967  0.62141669  0.96979731     0.70020
O1753       O  0.85478485  0.63957302  0.99352320    -0.46860
C1754       C  0.93492151  0.66135291  0.01314999     0.74720
O1755       O  0.85861667  0.62416256  0.06614310    -0.58720
O1756       O  0.93841075  0.63381376  0.00249158    -0.48810
O1757       O  0.90770498  0.61927790  0.06839870    -0.55150
C1758       C  0.90948717  0.55918896  0.02359221     0.84900
O1759       O  0.88211257  0.60111388  0.97363528    -0.57050
O1760       O  0.90753278  0.66821217  0.02491262    -0.60340
In1761     In  0.58593191  0.61535353  0.03611988     1.36870
C1762       C  0.61206061  0.62030602  0.08981600     0.77350
O1763       O  0.57161242  0.66623845  0.03092211    -0.61090
O1764       O  0.53768157  0.63234911  0.04251740    -0.52010
C1765       C  0.59971764  0.61729325  0.97379295     0.70020
O1766       O  0.61674430  0.63061776  0.99289357    -0.46860
C1767       C  0.56679112  0.55776039  0.04406398     0.74720
O1768       O  0.62884882  0.61591369  0.06379703    -0.58720
O1769       O  0.54979126  0.58175867  0.04838179    -0.48810
O1770       O  0.58351985  0.62516282  0.08745744    -0.55150
C1771       C  0.54291307  0.65978011  0.03502640     0.84900
O1772       O  0.57864844  0.60105369  0.98707356    -0.57050
O1773       O  0.59519116  0.56288483  0.03529429    -0.60340
In1774     In  0.58642154  0.88039794  0.03343953     1.36870
C1775       C  0.60974656  0.87903345  0.08894940     0.77350
O1776       O  0.59590802  0.93268518  0.03480318    -0.61090
O1777       O  0.54960041  0.91579398  0.03838129    -0.52010
C1778       C  0.60543319  0.88102482  0.97258564     0.70020
O1779       O  0.62291642  0.86959052  0.99181749    -0.46860
C1780       C  0.54516047  0.83506793  0.03103729     0.74720
O1781       O  0.62683145  0.87235499  0.06354412    -0.58720
O1782       O  0.53948412  0.86212341  0.04199235    -0.48810
O1783       O  0.58158739  0.88467984  0.08547117    -0.55150
C1784       C  0.56689114  0.93911118  0.03775718     0.84900
O1785       O  0.57943334  0.89135560  0.98475788    -0.57050
O1786       O  0.57387393  0.82912786  0.02385782    -0.60340
In1787     In  0.89309015  0.88284483  0.02635405     1.36870
C1788       C  0.87186574  0.88276141  0.97013993     0.77350
O1789       O  0.88042333  0.93465434  0.03258076    -0.61090
O1790       O  0.92774245  0.91912511  0.02981290    -0.52010
C1791       C  0.87727168  0.88220467  0.08790196     0.70020
O1792       O  0.85627793  0.88106657  0.06863279    -0.46860
C1793       C  0.93557007  0.83725721  0.01821225     0.74720
O1794       O  0.85593625  0.87050197  0.99300781    -0.58720
O1795       O  0.93990547  0.86505538  0.01155204    -0.48810
O1796       O  0.89753774  0.89369375  0.97663442    -0.55150
C1797       C  0.90879514  0.94175379  0.03367869     0.84900
O1798       O  0.90481257  0.88080403  0.07489676    -0.57050
O1799       O  0.90739722  0.83119931  0.02706782    -0.60340
C1800       C  0.98994770  0.76577996  0.02385351     0.02900
C1801       C  0.51841000  0.78239323  0.02601058    -0.13250
C1802       C  0.51867771  0.81475794  0.02479556     0.00400
C1803       C  0.99164410  0.83033641  0.01873313    -0.11780
C1804       C  0.96299950  0.81591957  0.01850493     0.02890
C1805       C  0.96190996  0.78366413  0.02158410    -0.11200
H1806       H  0.54030016  0.77106168  0.02906055     0.08490
H1807       H  0.99274704  0.85510301  0.01611130     0.06020
H1808       H  0.93923022  0.77326373  0.02225318     0.05860
C1809       C  0.73951115  0.51736543  0.52904931     0.02900
C1810       C  0.76771091  0.53400052  0.53285896    -0.13250
C1811       C  0.76732936  0.56646201  0.53593242     0.00400
C1812       C  0.73961364  0.58246807  0.53321367    -0.11780
C1813       C  0.71198442  0.56779604  0.52805287     0.02890
C1814       C  0.71150167  0.53529716  0.52681472    -0.11200
H1815       H  0.78996107  0.52255803  0.53375812     0.08490
H1816       H  0.73960596  0.60751086  0.53480039     0.06020
H1817       H  0.68936213  0.52486617  0.52368940     0.05860
In1818     In  0.64249489  0.63435375  0.52648151     1.36870
C1819       C  0.62237810  0.63414350  0.58724311     0.77350
O1820       O  0.65661349  0.58342578  0.53269207    -0.61090
O1821       O  0.68999892  0.61595359  0.51588947    -0.52010
C1822       C  0.62330535  0.62430959  0.46955729     0.70020
O1823       O  0.60494742  0.62074467  0.49430746    -0.46860
C1824       C  0.65845829  0.69357306  0.53048282     0.74720
O1825       O  0.60360399  0.62949703  0.56615926    -0.58720
O1826       O  0.67709113  0.67074144  0.52802663    -0.48810
O1827       O  0.65038008  0.63779565  0.57676590    -0.55150
C1828       C  0.68506024  0.58887519  0.52469606     0.84900
O1829       O  0.64972908  0.63450886  0.47449409    -0.57050
O1830       O  0.63013200  0.68657118  0.52874564    -0.60340
C1831       C  0.67069070  0.72507845  0.53558943     0.02900
C1832       C  0.70077755  0.72633769  0.54584852    -0.13250
C1833       C  0.71874291  0.75285089  0.54292861     0.00400
C1834       C  0.70439197  0.77977153  0.53382890    -0.11780
C1835       C  0.67269460  0.78067757  0.52827499     0.02890
C1836       C  0.65568815  0.75285332  0.52834750    -0.11200
H1837       H  0.71084972  0.70569830  0.55461168     0.08490
H1838       H  0.71796843  0.80041921  0.53072912     0.06020
H1839       H  0.63189784  0.75266966  0.52186078     0.05860
C1840       C  0.80251559  0.77838057  0.54741632     0.02900
C1841       C  0.76972344  0.77811348  0.55221640    -0.13250
C1842       C  0.75310725  0.75149724  0.54577945     0.00400
C1843       C  0.76997376  0.72393954  0.53877945    -0.11780
C1844       C  0.80257572  0.72230818  0.53895396     0.02890
C1845       C  0.81930718  0.75003528  0.54171246    -0.11200
H1846       H  0.75702914  0.79940147  0.55895467     0.08490
H1847       H  0.75778656  0.70329506  0.53243568     0.06020
H1848       H  0.84463167  0.74959768  0.53947476     0.05860
In1849     In  0.83550389  0.63194353  0.53541985     1.36870
C1850       C  0.86162738  0.63266173  0.58941411     0.77350
O1851       O  0.84557400  0.68401584  0.53280948    -0.61090
O1852       O  0.79914567  0.66769808  0.53967504    -0.52010
C1853       C  0.84660289  0.62677336  0.47304020     0.70020
O1854       O  0.86851427  0.62223737  0.49065464    -0.46860
C1855       C  0.79463053  0.58638350  0.54010119     0.74720
O1856       O  0.87719543  0.62331160  0.56380651    -0.58720
O1857       O  0.79016657  0.61337128  0.55182026    -0.48810
O1858       O  0.83374492  0.64022461  0.58672037    -0.55150
C1859       C  0.81664343  0.69075046  0.53686717     0.84900
O1860       O  0.82072623  0.63438498  0.48780238    -0.57050
O1861       O  0.82255928  0.58052488  0.52915823    -0.60340
In1862     In  0.83640826  0.86656293  0.53625251     1.36870
C1863       C  0.86649638  0.87122607  0.58739019     0.77350
O1864       O  0.82185899  0.91733992  0.53109347    -0.61090
O1865       O  0.78800789  0.88346882  0.54325098    -0.52010
C1866       C  0.84878086  0.86809444  0.47390612     0.70020
O1867       O  0.86622819  0.88160988  0.49244762    -0.46860
C1868       C  0.81690626  0.80920571  0.54519954     0.74720
O1869       O  0.88093708  0.86343650  0.56086562    -0.58720
O1870       O  0.80076981  0.83337982  0.55255338    -0.48810
O1871       O  0.83855246  0.87980443  0.58656721    -0.55150
C1872       C  0.79316731  0.91090938  0.53562124     0.84900
O1873       O  0.82772446  0.85224023  0.48774591    -0.57050
O1874       O  0.84454723  0.81411669  0.53369863    -0.60340
In1875     In  0.64072131  0.87027653  0.52208271     1.36870
C1876       C  0.62706847  0.87164869  0.58451066     0.77350
O1877       O  0.63062662  0.81885461  0.52753873    -0.61090
O1878       O  0.67707123  0.83384772  0.51619516    -0.52010
C1879       C  0.61267580  0.87605066  0.46978167     0.70020
O1880       O  0.60282709  0.89127315  0.49491340    -0.46860
C1881       C  0.68438818  0.91316448  0.51584158     0.74720
O1882       O  0.60570401  0.86809455  0.56597827    -0.58720
O1883       O  0.68789408  0.88539272  0.50593295    -0.48810
O1884       O  0.65353637  0.87688459  0.57069579    -0.55150
C1885       C  0.65935955  0.81158513  0.52309207     0.84900
O1886       O  0.63488740  0.85755610  0.47252537    -0.57050
O1887       O  0.65666773  0.92057034  0.52641412    -0.60340
C1888       C  0.73940566  0.98197865  0.52720394     0.02900
C1889       C  0.71173661  0.96527306  0.52146783    -0.13250
C1890       C  0.71213696  0.93276794  0.51883559     0.00400
C1891       C  0.73973658  0.91679947  0.52226427    -0.11780
C1892       C  0.76663727  0.93161236  0.52988844     0.02890
C1893       C  0.76684199  0.96410945  0.53180056    -0.11200
H1894       H  0.68982044  0.97668650  0.51876798     0.08490
H1895       H  0.73994835  0.89177213  0.52025500     0.06020
H1896       H  0.78821003  0.97461386  0.53768850     0.05860
C1897       C  0.72203229  0.74918115  0.27415769     0.02900
C1898       C  0.70514056  0.72106809  0.27840212    -0.13250
C1899       C  0.67234553  0.72086755  0.27914416     0.00400
C1900       C  0.65640478  0.74809684  0.27468302    -0.11780
C1901       C  0.67118785  0.77619436  0.27183792     0.02890
C1902       C  0.70401309  0.77693895  0.27148846    -0.11200
H1903       H  0.71658325  0.69932788  0.28157681     0.08490
H1904       H  0.63123572  0.74743912  0.27423342     0.06020
H1905       H  0.71476222  0.79907705  0.26853281     0.05860
C1906       C  0.51656932  0.68401423  0.28581300     0.02900
C1907       C  0.98845901  0.66725965  0.28802194    -0.13250
C1908       C  0.95961550  0.68335752  0.29530302     0.00400
C1909       C  0.95974661  0.71513321  0.30313929    -0.11780
C1910       C  0.98686371  0.73235467  0.29776734     0.02890
C1911       C  0.51494874  0.71638794  0.28867403    -0.11200
H1912       H  0.98895999  0.64250952  0.28337582     0.08490
H1913       H  0.93796796  0.72677685  0.31150840     0.06020
H1914       H  0.53602273  0.72921189  0.28327978     0.05860
C1915       C  0.95757307  0.81430675  0.28686145     0.02900
C1916       C  0.95832103  0.78231294  0.29080392    -0.13250
C1917       C  0.98547578  0.76685719  0.29778702     0.00400
C1918       C  0.51228705  0.78425411  0.30086611    -0.11780
C1919       C  0.51370469  0.81524325  0.29246592     0.02890
C1920       C  0.98577626  0.83089997  0.28674183    -0.11200
H1921       H  0.93750300  0.76934149  0.28752636     0.08490
H1922       H  0.53304601  0.77318794  0.30807594     0.06020
H1923       H  0.98616368  0.85509871  0.28126463     0.05860
In1924     In  0.60788554  0.65153140  0.28161727     1.36870
C1925       C  0.60671296  0.62925493  0.33901914     0.77350
O1926       O  0.65979057  0.66588878  0.27634428    -0.61090
O1927       O  0.62361188  0.69768045  0.29305857    -0.52010
C1928       C  0.61976082  0.63362148  0.22134632     0.70020
O1929       O  0.61847522  0.61405338  0.24295057    -0.46860
C1930       C  0.54848397  0.66996190  0.28149215     0.74720
O1931       O  0.61857473  0.61355165  0.31488785    -0.58720
O1932       O  0.57198077  0.68703432  0.27849617    -0.48810
O1933       O  0.59619249  0.65534073  0.33318865    -0.55150
C1934       C  0.65212209  0.69363546  0.28382395     0.84900
O1935       O  0.61382175  0.66101851  0.23096154    -0.57050
O1936       O  0.55514448  0.64149859  0.28256380    -0.60340
In1937     In  0.87165949  0.65138712  0.28008029     1.36870
C1938       C  0.85648984  0.63151592  0.33734684     0.77350
O1939       O  0.92377431  0.64177436  0.28424930    -0.61090
O1940       O  0.90455294  0.68705246  0.29254897    -0.52010
C1941       C  0.87518548  0.63152958  0.22016460     0.70020
O1942       O  0.85740895  0.61839783  0.24095395    -0.46860
C1943       C  0.82972266  0.69501462  0.27121587     0.74720
O1944       O  0.86883955  0.61317923  0.31555890    -0.58720
O1945       O  0.85856058  0.69912433  0.27299713    -0.48810
O1946       O  0.85055655  0.65816856  0.32873243    -0.55150
C1947       C  0.92862849  0.66987259  0.29112670     0.84900
O1948       O  0.89256884  0.65157266  0.23113234    -0.57050
O1949       O  0.82128202  0.66735922  0.27439515    -0.60340
In1950     In  0.86877334  0.84875341  0.27684130     1.36870
C1951       C  0.86922850  0.87667561  0.22255834     0.77350
O1952       O  0.92038490  0.85695844  0.28372985    -0.61090
O1953       O  0.90379327  0.81143158  0.27709012    -0.52010
C1954       C  0.85676423  0.86486432  0.33753168     0.70020
O1955       O  0.86439708  0.88502673  0.31746969    -0.46860
C1956       C  0.82757036  0.80508936  0.26627802     0.74720
O1957       O  0.84776135  0.88251194  0.24454155    -0.58720
O1958       O  0.85676522  0.80267191  0.25956106    -0.48810
O1959       O  0.89065993  0.85908725  0.22975317    -0.55150
C1960       C  0.92672291  0.82830455  0.28207431     0.84900
O1961       O  0.85479255  0.83791549  0.32605009    -0.57050
O1962       O  0.81831499  0.83157620  0.27696765    -0.60340
In1963     In  0.60483786  0.84640608  0.27786113     1.36870
C1964       C  0.60487923  0.86485849  0.33784564     0.77350
O1965       O  0.55165970  0.85620827  0.28205715    -0.61090
O1966       O  0.56932436  0.81087577  0.28619005    -0.52010
C1967       C  0.61526442  0.86594795  0.21976879     0.70020
O1968       O  0.62290819  0.88233956  0.24318183    -0.46860
C1969       C  0.64981353  0.80339831  0.27132071     0.74720
O1970       O  0.59907071  0.88405935  0.31721698    -0.58720
O1971       O  0.62144358  0.79939364  0.26692996    -0.48810
O1972       O  0.61435489  0.83879395  0.32674015    -0.55150
C1973       C  0.54550135  0.82825560  0.28698079     0.84900
O1974       O  0.60050888  0.84197064  0.22681196    -0.57050
O1975       O  0.65655409  0.83119748  0.27762248    -0.60340
C1976       C  0.75781470  0.74941779  0.27170936     0.02900
C1977       C  0.77592274  0.72138372  0.27119403    -0.13250
C1978       C  0.80879963  0.72169410  0.26672080     0.00400
C1979       C  0.82358877  0.74936337  0.26062021    -0.11780
C1980       C  0.80761093  0.77747530  0.26442970     0.02890
C1981       C  0.77472703  0.77767796  0.27007687    -0.11200
H1982       H  0.76533859  0.69924887  0.27459087     0.08490
H1983       H  0.84880158  0.74918035  0.25572064     0.06020
H1984       H  0.76310016  0.79988519  0.27344424     0.05860
C1985       C  0.60038638  0.87844095  0.43878322    -0.06350
C1986       C  0.59013408  0.85090259  0.42530822    -0.17480
C1987       C  0.58983418  0.84667322  0.39253937     0.10840
C1988       C  0.59993767  0.87076880  0.37252301    -0.06280
C1989       C  0.60746704  0.89939424  0.38615273    -0.17510
C1990       C  0.60792595  0.90340828  0.41914098     0.10880
S1991       S  0.57694300  0.80999610  0.37686896    -0.32480
S1992       S  0.62194180  0.93945536  0.43442621    -0.32480
H1993       H  0.60308898  0.93935286  0.46332489     0.28880
H1994       H  0.57882322  0.79337965  0.40449885     0.28880
H1995       H  0.58441854  0.83183553  0.44049392     0.19470
H1996       H  0.61493460  0.91800936  0.37102097     0.19480
C1997       C  0.85083587  0.87049478  0.43885072    -0.06350
C1998       C  0.82919745  0.85333550  0.42274041    -0.17480
C1999       C  0.82883919  0.85373094  0.39001480     0.10840
C2000       C  0.85137956  0.87079264  0.37205166    -0.06280
C2001       C  0.87229517  0.88908677  0.38782074    -0.17510
C2002       C  0.87191849  0.88953340  0.42104562     0.10880
S2003       S  0.79890695  0.83166220  0.37259871    -0.32480
S2004       S  0.89903180  0.91444840  0.43896710    -0.32480
H2005       H  0.87569770  0.92885162  0.46026851     0.28880
H2006       H  0.79600583  0.85139136  0.34740824     0.28880
H2007       H  0.81205074  0.83933348  0.43568561     0.19470
H2008       H  0.88969903  0.90222861  0.37417407     0.19480
C2009       C  0.85088619  0.62429300  0.37103125    -0.06350
C2010       C  0.87400010  0.60828881  0.38559586    -0.17480
C2011       C  0.87323946  0.60780600  0.41881615     0.10840
C2012       C  0.84934458  0.62436838  0.43786521    -0.06280
C2013       C  0.82565739  0.63911877  0.42292844    -0.17510
C2014       C  0.82586791  0.63885107  0.39012985     0.10880
S2015       S  0.90313468  0.58570933  0.43524550    -0.32480
S2016       S  0.79362761  0.65820356  0.37416292    -0.32480
H2017       H  0.79399735  0.63877301  0.34676763     0.28880
H2018       H  0.88224600  0.57243161  0.45824500     0.28880
H2019       H  0.89336684  0.59716806  0.37111800     0.19470
H2020       H  0.80667565  0.65141046  0.43689240     0.19480
C2021       C  0.61548054  0.61760112  0.43690341    -0.06350
C2022       C  0.58714806  0.62874313  0.42760944    -0.17480
C2023       C  0.58231721  0.62978046  0.39545975     0.10840
C2024       C  0.60643210  0.61969328  0.37205972    -0.06280
C2025       C  0.63339525  0.60567798  0.38152325    -0.17510
C2026       C  0.63810398  0.60440285  0.41364431     0.10880
S2027       S  0.54545512  0.64558823  0.38577125    -0.32480
S2028       S  0.67417646  0.58689451  0.42339284    -0.32480
H2029       H  0.66190705  0.57647155  0.45295554     0.28880
H2030       H  0.54493767  0.62836690  0.35701574     0.28880
H2031       H  0.56951521  0.63843928  0.44527588     0.19470
H2032       H  0.65183516  0.59759796  0.36385659     0.19480
C2033       C  0.87208240  0.88586193  0.12301565    -0.06350
C2034       C  0.89887504  0.89129995  0.13909039    -0.17480
C2035       C  0.89768128  0.89213252  0.17194640     0.10840
C2036       C  0.86912908  0.88685575  0.18989420    -0.06280
C2037       C  0.84171686  0.88389881  0.17436392    -0.17510
C2038       C  0.84283098  0.88380454  0.14109804     0.10880
S2039       S  0.93392701  0.89858159  0.18949434    -0.32480
S2040       S  0.80663974  0.87938588  0.12336933    -0.32480
H2041       H  0.81172800  0.90505967  0.10432401     0.28880
H2042       H  0.91988722  0.91214041  0.21809537     0.28880
H2043       H  0.92144662  0.89437569  0.12601992     0.19470
H2044       H  0.81967940  0.87976497  0.18801390     0.19480
C2045       C  0.62048413  0.87994027  0.12087777    -0.06350
C2046       C  0.63352440  0.85306924  0.13171808    -0.17480
C2047       C  0.63482369  0.84926467  0.16416539     0.10840
C2048       C  0.62289793  0.87284537  0.18626043    -0.06280
C2049       C  0.61276821  0.90091237  0.17522837    -0.17510
C2050       C  0.61143297  0.90468778  0.14273579     0.10880
S2051       S  0.65001746  0.81291801  0.17610089    -0.32480
S2052       S  0.59595579  0.94085050  0.13065885    -0.32480
H2053       H  0.61182952  0.93943269  0.10007823     0.28880
H2054       H  0.66112309  0.82496220  0.20413753     0.28880
H2055       H  0.64046162  0.83404035  0.11512507     0.19470
H2056       H  0.60372215  0.91907639  0.19198445     0.19480
C2057       C  0.62330929  0.61839030  0.12129946    -0.06350
C2058       C  0.63885255  0.64359014  0.13359020    -0.17480
C2059       C  0.64082161  0.64746411  0.16624661     0.10840
C2060       C  0.62636277  0.62595442  0.18714051    -0.06280
C2061       C  0.61344027  0.59927074  0.17446602    -0.17510
C2062       C  0.61177520  0.59530172  0.14178576     0.10880
S2063       S  0.66077120  0.68115406  0.17983540    -0.32480
S2064       S  0.59221056  0.56158914  0.12772247    -0.32480
H2065       H  0.60922135  0.55980646  0.09772347     0.28880
H2066       H  0.67152551  0.66725519  0.20632485     0.28880
H2067       H  0.64766056  0.66136080  0.11797609     0.19470
H2068       H  0.60253365  0.58255646  0.19015478     0.19480
C2069       C  0.87575519  0.62623000  0.18537665    -0.06350
C2070       C  0.90259568  0.63592979  0.16726169    -0.17480
C2071       C  0.90386254  0.63716292  0.13448925     0.10840
C2072       C  0.87842894  0.62638104  0.11839401    -0.06280
C2073       C  0.85156421  0.61615295  0.13621729    -0.17510
C2074       C  0.84969812  0.61661529  0.16954272     0.10880
S2075       S  0.93813608  0.65468010  0.11512013    -0.32480
S2076       S  0.81309739  0.60630640  0.19032248    -0.32480
H2077       H  0.81125355  0.63297023  0.21047635     0.28880
H2078       H  0.92145391  0.67116759  0.09399606     0.28880
H2079       H  0.92254617  0.64413667  0.17887260     0.19470
H2080       H  0.83188251  0.60799180  0.12418665     0.19480
C2081       C  0.87551570  0.62622658  0.68632258    -0.06350
C2082       C  0.86505635  0.65427623  0.67557539    -0.17480
C2083       C  0.86392792  0.65840066  0.64311732     0.10840
C2084       C  0.87333368  0.63392769  0.62098328    -0.06280
C2085       C  0.88708151  0.60728736  0.63158301    -0.17510
C2086       C  0.88831311  0.60321878  0.66401671     0.10880
S2087       S  0.84802270  0.69455792  0.63148015    -0.32480
S2088       S  0.90447808  0.56720642  0.67568325    -0.32480
H2089       H  0.91480810  0.57936390  0.70404389     0.28880
H2090       H  0.86365630  0.69344031  0.60078125     0.28880
H2091       H  0.85550183  0.67208624  0.69249482     0.19470
H2092       H  0.89443805  0.58850284  0.61484297     0.19480
C2093       C  0.85191928  0.62122494  0.87206730    -0.06350
C2094       C  0.84227430  0.59569183  0.88976192    -0.17480
C2095       C  0.84116717  0.59664575  0.92265117     0.10840
C2096       C  0.84980687  0.62375427  0.93872602    -0.06280
C2097       C  0.85644438  0.65037740  0.92154363    -0.17510
C2098       C  0.85792831  0.64930090  0.88824589     0.10880
S2099       S  0.83097595  0.56165087  0.94272101    -0.32480
S2100       S  0.87078576  0.68323021  0.86792509    -0.32480
H2101       H  0.89137266  0.66710276  0.84510719     0.28880
H2102       H  0.82109456  0.57631164  0.97219299     0.28880
H2103       H  0.83654583  0.57423778  0.87778792     0.19470
H2104       H  0.86374027  0.67109147  0.93375724     0.19480
C2105       C  0.88104113  0.87485517  0.68393364    -0.06350
C2106       C  0.87229712  0.84687458  0.67007215    -0.17480
C2107       C  0.87140359  0.84364017  0.63718041     0.10840
C2108       C  0.87944978  0.86883418  0.61793742    -0.06280
C2109       C  0.89118943  0.89557549  0.63152092    -0.17510
C2110       C  0.89242570  0.89871501  0.66424810     0.10880
S2111       S  0.85600131  0.80833033  0.62148192    -0.32480
S2112       S  0.90629264  0.93482471  0.67981446    -0.32480
H2113       H  0.91806094  0.92195318  0.70631135     0.28880
H2114       H  0.87211272  0.80990313  0.59119889     0.28880
H2115       H  0.86345958  0.82857108  0.68497798     0.19470
H2116       H  0.89708567  0.91503261  0.61691081     0.19480
C2117       C  0.85911321  0.88664067  0.87161749    -0.06350
C2118       C  0.86806655  0.91275741  0.88906347    -0.17480
C2119       C  0.86923138  0.91263430  0.92162695     0.10840
C2120       C  0.86248620  0.88534109  0.93783531    -0.06280
C2121       C  0.85233660  0.85935492  0.92103830    -0.17510
C2122       C  0.85005863  0.85991092  0.88812737     0.10880
S2123       S  0.88005396  0.94827187  0.94104144    -0.32480
S2124       S  0.83530629  0.82619014  0.86884670    -0.32480
H2125       H  0.81562079  0.84308182  0.85084482     0.28880
H2126       H  0.86172685  0.94370375  0.96968835     0.28880
H2127       H  0.87447517  0.93382355  0.87727434     0.19470
H2128       H  0.84712122  0.83832236  0.93334916     0.19480
C2129       C  0.62274697  0.86479573  0.68606602    -0.06350
C2130       C  0.59462201  0.86740668  0.67173266    -0.17480
C2131       C  0.59472219  0.86952906  0.63867283     0.10840
C2132       C  0.62352317  0.86843529  0.61946031    -0.06280
C2133       C  0.65124011  0.86347844  0.63398528    -0.17510
C2134       C  0.65116247  0.86149146  0.66666099     0.10880
S2135       S  0.55777901  0.87593319  0.62297432    -0.32480
S2136       S  0.68847609  0.85585843  0.68225882    -0.32480
H2137       H  0.67635417  0.84084980  0.70946472     0.28880
H2138       H  0.56859344  0.90052381  0.60441570     0.28880
H2139       H  0.57273223  0.87048246  0.68647177     0.19470
H2140       H  0.67354800  0.86141535  0.61980808     0.19480
C2141       C  0.61331101  0.88346578  0.87169988    -0.06350
C2142       C  0.60566181  0.91021575  0.89088167    -0.17480
C2143       C  0.60624412  0.91048327  0.92355268     0.10840
C2144       C  0.61344208  0.88308077  0.93833373    -0.06280
C2145       C  0.62218565  0.85642198  0.91959608    -0.17510
C2146       C  0.62275988  0.85648119  0.88636895     0.10880
S2147       S  0.59716596  0.94672305  0.94520133    -0.32480
S2148       S  0.63518881  0.82150155  0.86437178    -0.32480
H2149       H  0.65861910  0.83626357  0.84528798     0.28880
H2150       H  0.61628311  0.94107567  0.96961713     0.28880
H2151       H  0.59935041  0.93158896  0.88044477     0.19470
H2152       H  0.62752804  0.83523736  0.93090220     0.19480
C2153       C  0.60946485  0.63301034  0.68837129    -0.06350
C2154       C  0.59082278  0.61410086  0.67038209    -0.17480
C2155       C  0.59301489  0.61489958  0.63725511     0.10840
C2156       C  0.61377430  0.63561588  0.62179374    -0.06280
C2157       C  0.63054402  0.65614958  0.64012555    -0.17510
C2158       C  0.62910055  0.65470000  0.67308373     0.10880
S2159       S  0.57152076  0.58671344  0.61614104    -0.32480
S2160       S  0.65453353  0.67969273  0.69368152    -0.32480
H2161       H  0.65864951  0.66094847  0.71928784     0.28880
H2162       H  0.59703641  0.57761068  0.59438171     0.28880
H2163       H  0.57633338  0.59682185  0.68204541     0.19470
H2164       H  0.64647066  0.67226523  0.62847986     0.19480
C2165       C  0.60223807  0.62295336  0.87194132    -0.06350
C2166       C  0.62581553  0.63733265  0.88779420    -0.17480
C2167       C  0.62562346  0.63681493  0.92100195     0.10840
C2168       C  0.60187982  0.62072534  0.93877715    -0.06280
C2169       C  0.57770586  0.60767445  0.92266478    -0.17510
C2170       C  0.57730056  0.60909016  0.88996606     0.10880
S2171       S  0.65672802  0.65613138  0.93891449    -0.32480
S2172       S  0.54411222  0.59248511  0.87270319    -0.32640
H2173       H  0.54407496  0.61334278  0.84807939     0.28880
H2174       H  0.63607878  0.67461005  0.95962061     0.28880
H2175       H  0.64511707  0.64796793  0.87419360     0.19470
H2176       H  0.55852485  0.59622969  0.93562074     0.19480
loop_ 
_geom_bond_atom_site_label_1 
_geom_bond_atom_site_label_2 
_geom_bond_distance 
_geom_bond_site_symmetry_2 
_ccdc_geom_bond_type 
C1            C6   1.435       .  A
C1          C546   1.433   1_545  A
C1         C1168   1.529       .  S
C2            C3   1.406       .  A
C2          C545   1.433       .  A
C2            H7   1.076       .  S
C3            C4   1.385       .  A
C3           C60   1.484       .  S
C4          C549   1.384       .  A
C4            H8   1.083       .  S
C5            C6   1.408       .  A
C5          C548   1.384   1_545  A
C5           C77   1.487       .  S
C6            H9   1.076       .  S
In10         O12   2.303       .  S
In10         O13   2.165       .  S
In10         O21   2.199       .  S
In10         O15   2.277       .  S
In10         O17   2.287       .  S
In10         O18   2.181       .  S
In10         O19   2.199       .  S
In10         O22   2.309       .  S
C11         C533   1.479       .  S
C11          O17   1.267       .  A
C11          O19   1.254       .  A
O12          C20   1.266       .  A
O13          C20   1.261       .  A
C14         C521   1.465       .  S
C14          O21   1.253       .  A
C14          O15   1.266       .  A
C16          C32   1.484       .  S
C16          O18   1.258       .  A
C16          O22   1.265       .  A
C20          C82   1.484       .  S
C23          C24   1.405       .  A
C23          C28   1.413       .  A
C23          C64   1.485       .  S
C24          C25   1.397       .  A
C24          H29   1.078       .  S
C25          C26   1.399       .  A
C25         C578   1.500       .  S
C26          C27   1.404       .  A
C26          H30   1.080       .  S
C27          C28   1.416       .  A
C27          C51   1.482       .  S
C28          H31   1.083       .  S
C32          C33   1.404       .  A
C32          C37   1.415       .  A
C33          C34   1.397       .  A
C33          H38   1.078       .  S
C34          C35   1.399       .  A
C34         C569   1.500   1_545  S
C35          C36   1.405       .  A
C35          H39   1.080       .  S
C36          C37   1.415       .  A
C36          C73   1.486       .  S
C37          H40   1.083       .  S
In41         O43   2.291       .  S
In41         O44   2.196       .  S
In41         O52   2.193       .  S
In41         O46   2.278       .  S
In41         O48   2.280       .  S
In41         O49   2.178       .  S
In41         O50   2.180       .  S
In41         O53   2.300       .  S
C42         C509   1.487       .  S
C42          O48   1.268       .  A
C42          O50   1.256       .  A
O43          C51   1.265       .  A
O44          C51   1.263       .  A
C45         C497   1.475       .  S
C45          O52   1.255       .  A
C45          O46   1.267       .  A
C47          C84   1.486       .  S
C47          O49   1.262       .  A
C47          O53   1.265       .  A
In54         O56   2.314       .  S
In54         O57   2.168       .  S
In54         O65   2.174       .  S
In54         O59   2.292       .  S
In54         O61   2.281       .  S
In54         O62   2.154       .  S
In54         O63   2.181       .  S
In54         O66   2.316       .  S
C55         C473   1.470       .  S
C55          O61   1.270       .  A
C55          O63   1.254       .  A
O56          C64   1.267       .  A
O57          C64   1.257       .  A
C58         C485   1.486       .  S
C58          O65   1.255       .  A
C58          O59   1.271       .  A
C60          O62   1.259       .  A
C60          O66   1.266       .  A
In67         O69   2.309       .  S
In67         O70   2.163       .  S
In67         O78   2.185       .  S
In67         O72   2.282       .  S
In67         O74   2.277       .  S
In67         O75   2.195       .  S
In67         O76   2.195       .  S
In67         O79   2.308       .  S
C68         C449   1.472       .  S
C68          O74   1.269       .  A
C68          O76   1.256       .  A
O69          C77   1.267       .  A
O70          C77   1.262       .  A
C71         C461   1.478       .  S
C71          O78   1.256       .  A
C71          O72   1.269       .  A
C73          O75   1.259       .  A
C73          O79   1.265       .  A
C80          C81   1.432       .  A
C80         C629   1.433   1_545  A
C80        C1089   1.529   1_455  S
C81          C82   1.407       .  A
C81          H86   1.076       .  S
C82          C83   1.387   1_545  A
C83         C628   1.385       .  A
C83          H87   1.082       .  S
C84          C85   1.408       .  A
C84         C627   1.385       .  A
C85         C624   1.433       .  A
C85          H88   1.076       .  S
C89          C94   1.433       .  A
C89        C1178   1.433       .  A
C89         C168   1.530       .  S
C90          C91   1.407       .  A
C90        C1177   1.433   1_455  A
C90          H95   1.076       .  S
C91        C1180   1.387   1_455  A
C91         C139   1.483       .  S
C92          C93   1.384       .  A
C92        C1179   1.387       .  A
C92          H96   1.085       .  S
C93          C94   1.408       .  A
C93         C122   1.481       .  S
C94          H97   1.077       .  S
C98          C99   1.400       .  A
C98         C647   1.415       .  A
C98         C165   1.481       .  S
C99         C100   1.395       .  A
C99         H104   1.082       .  S
C100        C645   1.399       .  A
C100       C1741   1.493       .  S
C101        C102   1.403       .  A
C101        C644   1.399       .  A
C101        H105   1.080       .  S
C102        C103   1.416       .  A
C102        C126   1.482       .  S
C103        C642   1.415   1_545  A
C103        H106   1.083       .  S
C107        C108   1.405       .  A
C107        C112   1.417   1_545  A
C107        C135   1.484       .  S
C108        C109   1.394   1_545  A
C108        H113   1.080       .  S
C109        C654   1.396       .  A
C109       C1732   1.493   1_465  S
C110        C111   1.403       .  A
C110        C653   1.396       .  A
C110        H114   1.079       .  S
C111        C656   1.416       .  A
C111        C152   1.485       .  S
C112        C655   1.416       .  A
C112        H115   1.082       .  S
In116       O118   2.286       .  S
In116       O119   2.195       .  S
In116       O127   2.192   1_554  S
In116       O121   2.277   1_554  S
In116       O123   2.285       .  S
In116       O124   2.205       .  S
In116       O125   2.177       .  S
In116       O128   2.294       .  S
C117        C440   1.479       .  S
C117        O123   1.272       .  A
C117        O125   1.255       .  A
O118        C126   1.268       .  A
O119        C126   1.265       .  A
C120        C464   1.467       .  S
C120        O127   1.254       .  A
C120        O121   1.265       .  A
C122        O124   1.262       .  A
C122        O128   1.261       .  A
In129       O131   2.306       .  S
In129       O132   2.179       .  S
In129       O140   2.199   1_554  S
In129       O134   2.283   1_554  S
In129       O136   2.275       .  S
In129       O137   2.183       .  S
In129       O138   2.195       .  S
In129       O141   2.301       .  S
C130        C425   1.467       .  S
C130        O136   1.267       .  A
C130        O138   1.254       .  A
O131        C139   1.265       .  A
O132        C139   1.260       .  A
C133        C536   1.493       .  S
C133        O140   1.258       .  A
C133        O134   1.269       .  A
C135        O137   1.260       .  A
C135        O141   1.266       .  A
In142       O144   2.307       .  S
In142       O145   2.179       .  S
In142       O153   2.183   1_554  S
In142       O147   2.279   1_554  S
In142       O149   2.279       .  S
In142       O150   2.179       .  S
In142       O151   2.198       .  S
In142       O154   2.322       .  S
C143        C413   1.470       .  S
C143        O149   1.267       .  A
C143        O151   1.254       .  A
O144        C152   1.267       .  A
O145        C152   1.261       .  A
C146        C512   1.468       .  S
C146        O153   1.255       .  A
C146        O147   1.269       .  A
C148        C170   1.484       .  S
C148        O150   1.257       .  A
C148        O154   1.263       .  A
In155       O157   2.302       .  S
In155       O158   2.189       .  S
In155       O166   2.170       .  S
In155       O160   2.282       .  S
In155       O162   2.284   1_554  S
In155       O163   2.172       .  S
In155       O164   2.170   1_554  S
In155       O167   2.315       .  S
C156        C488   1.472       .  S
C156        O162   1.271       .  A
C156        O164   1.255       .  A
O157        C165   1.265       .  A
O158        C165   1.262       .  A
C159        C401   1.487       .  S
C159        O166   1.257       .  A
C159        O160   1.272       .  A
C161        C172   1.489       .  S
C161        O163   1.260       .  A
C161        O167   1.267       .  A
C168        C173   1.436       .  A
C168       C1257   1.435       .  A
C169        C170   1.405       .  A
C169       C1256   1.435   1_455  A
C169        H174   1.075       .  S
C170       C1259   1.385   1_455  A
C171        C172   1.387       .  A
C171       C1258   1.385       .  A
C171        H175   1.084       .  S
C172        C173   1.410       .  A
C173        H176   1.077       .  S
C177        C178   1.436       .  A
C177        C182   1.436       .  A
C177        C800   1.532   1_545  S
C178        C179   1.407       .  A
C178        H183   1.075       .  S
C179        C180   1.386       .  A
C179        C223   1.484       .  S
C180        C181   1.384       .  A
C180        H184   1.085       .  S
C181        C182   1.408       .  A
C181        C196   1.485       .  S
C182        H185   1.075       .  S
In186       O188   2.312       .  S
In186       O189   2.181       .  S
In186       O197   2.198       .  S
In186       O191   2.276       .  S
In186       O193   2.275       .  S
In186       O194   2.183       .  S
In186       O195   2.190       .  S
In186       O198   2.314       .  S
C187        C524   1.476       .  S
C187        O193   1.271       .  A
C187        O195   1.256       .  A
O188        C196   1.264       .  A
O189        C196   1.260       .  A
C190        C389   1.475       .  S
C190        O197   1.256       .  A
C190        O191   1.268       .  A
C192        C199   1.484       .  S
C192        O194   1.259       .  A
C192        O198   1.265       .  A
C199        C200   1.402       .  A
C199        C204   1.415       .  A
C200        C201   1.395       .  A
C200        H205   1.082       .  S
C201        C202   1.396       .  A
C201        C210   1.492       .  S
C202        C203   1.403       .  A
C202        H206   1.080       .  S
C203        C204   1.418       .  A
C203        C253   1.482       .  S
C204        H207   1.082       .  S
C208        C209   1.404       .  A
C208        C213   1.417       .  A
C208        C236   1.481       .  S
C209        C210   1.395       .  A
C209        H214   1.080       .  S
C210        C211   1.396       .  A
C211        C212   1.401       .  A
C211        H215   1.080       .  S
C212        C213   1.414       .  A
C212        C227   1.484       .  S
C213        H216   1.082       .  S
In217       O219   2.308       .  S
In217       O220   2.175       .  S
In217       O228   2.179       .  S
In217       O222   2.283       .  S
In217       O224   2.283       .  S
In217       O225   2.180       .  S
In217       O226   2.186       .  S
In217       O229   2.315       .  S
C218        C452   1.473       .  S
C218        O224   1.271       .  A
C218        O226   1.254       .  A
O219        C227   1.267       .  A
O220        C227   1.260       .  A
C221        C380   1.485       .  S
C221        O228   1.257       .  A
C221        O222   1.273       .  A
C223        O225   1.258       .  A
C223        O229   1.264       .  A
In230       O232   2.303       .  S
In230       O233   2.184       .  S
In230       O241   2.193       .  S
In230       O235   2.278       .  S
In230       O237   2.267       .  S
In230       O238   2.196       .  S
In230       O239   2.199       .  S
In230       O242   2.292       .  S
C231        C476   1.464       .  S
C231        O237   1.265       .  A
C231        O239   1.255       .  A
O232        C240   1.265       .  A
O233        C240   1.261       .  A
C234        C365   1.489       .  S
C234        O241   1.258       .  A
C234        O235   1.268       .  A
C236        O238   1.261       .  A
C236        O242   1.264       .  A
C240        C260   1.484       .  S
In243       O245   2.292       .  S
In243       O246   2.196       .  S
In243       O254   2.191       .  S
In243       O248   2.279       .  S
In243       O250   2.287       .  S
In243       O251   2.193       .  S
In243       O252   2.193       .  S
In243       O255   2.298       .  S
C244        C500   1.488       .  S
C244        O250   1.270       .  A
C244        O252   1.257       .  A
O245        C253   1.264       .  A
O246        C253   1.262       .  A
C247        C353   1.469       .  S
C247        O254   1.254       .  A
C247        O248   1.267       .  A
C249        C258   1.484       .  S
C249        O251   1.262       .  A
C249        O255   1.265       .  A
C256        C257   1.434       .  A
C256        C261   1.434       .  A
C256        C721   1.532       .  S
C257        C258   1.408       .  A
C257        H262   1.075       .  S
C258        C259   1.387       .  A
C259        C260   1.387       .  A
C259        H263   1.084       .  S
C260        C261   1.408       .  A
C261        H264   1.075       .  S
C265        C266   1.434       .  A
C265        C270   1.435       .  A
C265        C344   1.530       .  S
C266        C267   1.406       .  A
C266        H271   1.076       .  S
C267        C268   1.384       .  A
C267        C302   1.483       .  S
C268        C269   1.384       .  A
C268        H272   1.083       .  S
C269        C270   1.409       .  A
C269        C337   1.487       .  S
C270        H273   1.076       .  S
C274        C279   1.404       .  A
C274       C1363   1.414   1_455  A
C274        C298   1.485       .  S
C275        C276   1.416       .  A
C275       C1362   1.414       .  A
C275        H280   1.082       .  S
C276        C277   1.404       .  A
C276        C315   1.483       .  S
C277        C278   1.397       .  A
C277        H281   1.080       .  S
C278       C1367   1.397       .  A
C278        C285   1.495       .  S
C279       C1366   1.397   1_455  A
C279        H282   1.079       .  S
C283        C284   1.403       .  A
C283        C288   1.416       .  A
C283        C328   1.484       .  S
C284        C285   1.398       .  A
C284        H289   1.079       .  S
C285       C1374   1.398       .  A
C286        C287   1.403       .  A
C286       C1373   1.398   1_455  A
C286        H290   1.081       .  S
C287       C1376   1.415   1_455  A
C287        C341   1.485       .  S
C288       C1375   1.415       .  A
C288        H291   1.083       .  S
In292       O294   2.314       .  S
In292       O295   2.171       .  S
In292       O303   2.195       .  S
In292       O297   2.274       .  S
In292       O299   2.278       .  S
In292       O300   2.180       .  S
In292       O301   2.198       .  S
In292       O304   2.308       .  S
C293        C392   1.476       .  S
C293        O299   1.269       .  A
C293        O301   1.254       .  A
O294        C302   1.263       .  A
O295        C302   1.258       .  A
C296        C428   1.476       .  S
C296        O303   1.255       .  A
C296        O297   1.270       .  A
C298        O300   1.258       .  A
C298        O304   1.266       .  A
In305       O307   2.295       .  S
In305       O308   2.190       .  S
In305       O316   2.184       .  S
In305       O310   2.281       .  S
In305       O312   2.277       .  S
In305       O313   2.176       .  S
In305       O314   2.183       .  S
In305       O317   2.299       .  S
C306        C377   1.473       .  S
C306        O312   1.268       .  A
C306        O314   1.255       .  A
O307        C315   1.265       .  A
O308        C315   1.261       .  A
C309        C437   1.483       .  S
C309        O316   1.256       .  A
C309        O310   1.268       .  A
C311        C346   1.484       .  S
C311        O313   1.262       .  A
C311        O317   1.265       .  A
In318       O320   2.292       .  S
In318       O321   2.195       .  S
In318       O329   2.188       .  S
In318       O323   2.280       .  S
In318       O325   2.276       .  S
In318       O326   2.185       .  S
In318       O327   2.192       .  S
In318       O330   2.299       .  S
C319        C404   1.471       .  S
C319        O325   1.264       .  A
C319        O327   1.254       .  A
O320        C328   1.266       .  A
O321        C328   1.263       .  A
C322        C368   1.473       .  S
C322        O329   1.255       .  A
C322        O323   1.268       .  A
C324        C348   1.485       .  S
C324        O326   1.261       .  A
C324        O330   1.263       .  A
In331       O333   2.306       .  S
In331       O334   2.196       .  S
In331       O342   2.192       .  S
In331       O336   2.277       .  S
In331       O338   2.283       .  S
In331       O339   2.168       .  S
In331       O340   2.187       .  S
In331       O343   2.307       .  S
C332        C356   1.478       .  S
C332        O338   1.269       .  A
C332        O340   1.255       .  A
O333        C341   1.264       .  A
O334        C341   1.259       .  A
C335        C416   1.472       .  S
C335        O342   1.255       .  A
C335        O336   1.269       .  A
C337        O339   1.262       .  A
C337        O343   1.267       .  A
C344        C345   1.432       .  A
C344        C349   1.432       .  A
C345        C346   1.407       .  A
C345        H350   1.076       .  S
C346        C347   1.386       .  A
C347        C348   1.387       .  A
C347        H351   1.083       .  S
C348        C349   1.410       .  A
C349        H352   1.077       .  S
C353        C354   1.397       .  A
C353        C358   1.413       .  A
C354        C355   1.396       .  A
C354        H363   1.084       .  S
C355        C356   1.418       .  A
C355        S359   1.812       .  S
C356        C357   1.403       .  A
C357        C358   1.405       .  A
C357        H364   1.083       .  S
C358        S360   1.800       .  S
S359        H362   1.407       .  S
S360        H361   1.405       .  S
C365        C366   1.407       .  A
C365        C370   1.418       .  A
C366        C367   1.390       .  A
C366        H375   1.083       .  S
C367        C368   1.410       .  A
C367        S371   1.807       .  S
C368        C369   1.404       .  A
C369        C370   1.407       .  A
C369        H376   1.083       .  S
C370        S372   1.798       .  S
S371        H374   1.407       .  S
S372        H373   1.408       .  S
C377        C378   1.406       .  A
C377        C382   1.410       .  A
C378        C379   1.407       .  A
C378        H387   1.083       .  S
C379        C380   1.415       .  A
C379        S383   1.799       .  S
C380        C381   1.407       .  A
C381        C382   1.390       .  A
C381        H388   1.083       .  S
C382        S384   1.807       .  S
S383        H386   1.407       .  S
S384        H385   1.407       .  S
C389        C390   1.399       .  A
C389        C394   1.417       .  A
C390        C391   1.401       .  A
C390        H399   1.083       .  S
C391        C392   1.418       .  A
C391        S395   1.805       .  S
C392        C393   1.399       .  A
C393        C394   1.399       .  A
C393        H400   1.083       .  S
C394        S396   1.805       .  S
S395        H398   1.407       .  S
S396        H397   1.407       .  S
C401        C402   1.409       .  A
C401        C406   1.415       .  A
C402        C403   1.389       .  A
C402        H411   1.083       .  S
C403        C404   1.408       .  A
C403        S407   1.807       .  S
C404        C405   1.406       .  A
C405        C406   1.407       .  A
C405        H412   1.083       .  S
C406        S408   1.797       .  S
S407        H410   1.407       .  S
S408        H409   1.407       .  S
C413        C414   1.397       .  A
C413        C418   1.416       .  A
C414        C415   1.399       .  A
C414        H423   1.083       .  S
C415        C416   1.417       .  A
C415        S419   1.805       .  S
C416        C417   1.398       .  A
C417        C418   1.401       .  A
C417        H424   1.083       .  S
C418        S420   1.805       .  S
S419        H422   1.407       .  S
S420        H421   1.407       .  S
C425        C426   1.396       .  A
C425        C430   1.414       .  A
C426        C427   1.399       .  A
C426        H435   1.084       .  S
C427        C428   1.420       .  A
C427        S431   1.805       .  S
C428        C429   1.399       .  A
C429        C430   1.399       .  A
C429        H436   1.084       .  S
C430        S432   1.804       .  S
S431        H434   1.407       .  S
S432        H433   1.406       .  S
C437        C438   1.403       .  A
C437        C442   1.417       .  A
C438        C439   1.389       .  A
C438        H447   1.084       .  S
C439        C440   1.416       .  A
C439        S443   1.808       .  S
C440        C441   1.405       .  A
C441        C442   1.408       .  A
C441        H448   1.083       .  S
C442        S444   1.799       .  S
S443        H446   1.408       .  S
S444        H445   1.407       .  S
C449        C450   1.398       .  A
C449        C454   1.417       .  A
C450        C451   1.400       .  A
C450        H459   1.083       .  S
C451        C452   1.418       .  A
C451        S455   1.805       .  S
C452        C453   1.398       .  A
C453        C454   1.400       .  A
C453        H460   1.083       .  S
C454        S456   1.805       .  S
S455        H458   1.407       .  S
S456        H457   1.407       .  S
C461        C462   1.406       .  A
C461        C466   1.412       .  A
C462        C463   1.391       .  A
C462        H471   1.084       .  S
C463        C464   1.407       .  A
C463        S467   1.806       .  S
C464        C465   1.406       .  A
C465        C466   1.407       .  A
C465        H472   1.083       .  S
C466        S468   1.800       .  S
S467        H470   1.407       .  S
S468        H469   1.407       .  S
C473        C474   1.398       .  A
C473        C478   1.417       .  A
C474        C475   1.401       .  A
C474        H483   1.084       .  S
C475        C476   1.415       .  A
C475        S479   1.803       .  S
C476        C477   1.395       .  A
C477        C478   1.396       .  A
C477        H484   1.084       .  S
C478        S480   1.805       .  S
S479        H482   1.406       .  S
S480        H481   1.406       .  S
C485        C486   1.406       .  A
C485        C490   1.416       .  A
C486        C487   1.387       .  A
C486        H495   1.084       .  S
C487        C488   1.411       .  A
C487        S491   1.809       .  S
C488        C489   1.405       .  A
C489        C490   1.410       .  A
C489        H496   1.083       .  S
C490        S492   1.798       .  S
S491        H494   1.407       .  S
S492        H493   1.407       .  S
C497        C498   1.407       .  A
C497        C502   1.409       .  A
C498        C499   1.409       .  A
C498        H507   1.083       .  S
C499        C500   1.415       .  A
C499        S503   1.799       .  S
C500        C501   1.408       .  A
C501        C502   1.392       .  A
C501        H508   1.083       .  S
C502        S504   1.807       .  S
S503        H506   1.407       .  S
S504        H505   1.407       .  S
C509        C510   1.408       .  A
C509        C514   1.418       .  A
C510        C511   1.388       .  A
C510        H519   1.084       .  S
C511        C512   1.408       .  A
C511        S515   1.808       .  S
C512        C513   1.403       .  A
C513        C514   1.407       .  A
C513        H520   1.084       .  S
C514        S516   1.797       .  S
S515        H518   1.407       .  S
S516        H517   1.407       .  S
C521        C522   1.406       .  A
C521        C526   1.407       .  A
C522        C523   1.401       .  A
C522        H531   1.084       .  S
C523        C524   1.410       .  A
C523        S527   1.801       .  S
C524        C525   1.408       .  A
C525        C526   1.398       .  A
C525        H532   1.084       .  S
C526        S528   1.807       .  S
S527        H530   1.407       .  S
S528        H529   1.404       .  S
C533        C534   1.406       .  A
C533        C538   1.411       .  A
C534        C535   1.409       .  A
C534        H543   1.083       .  S
C535        C536   1.417       .  A
C535        S539   1.797       .  S
C536        C537   1.408       .  A
C537        C538   1.392       .  A
C537        H544   1.083       .  S
C538        S540   1.807       .  S
S539        H542   1.407       .  S
S540        H541   1.407       .  S
C545        C550   1.435       .  A
C545       C1712   1.529       .  S
C546        C547   1.406       .  A
C546        H551   1.076       .  S
C547        C548   1.385       .  A
C547        C604   1.484       .  S
C548        H552   1.083       .  S
C549        C550   1.408       .  A
C549        C621   1.487       .  S
C550        H553   1.076       .  S
In554       O556   2.303       .  S
In554       O557   2.165       .  S
In554       O565   2.199       .  S
In554       O559   2.277       .  S
In554       O561   2.287       .  S
In554       O562   2.181       .  S
In554       O563   2.199       .  S
In554       O566   2.309       .  S
C555       C1077   1.479       .  S
C555        O561   1.267       .  A
C555        O563   1.254       .  A
O556        C564   1.266       .  A
O557        C564   1.261       .  A
C558       C1065   1.465       .  S
C558        O565   1.253       .  A
C558        O559   1.266       .  A
C560        C576   1.484       .  S
C560        O562   1.258       .  A
C560        O566   1.265       .  A
C564        C626   1.484       .  S
C567        C568   1.405       .  A
C567        C572   1.413       .  A
C567        C608   1.485       .  S
C568        C569   1.397       .  A
C568        H573   1.078       .  S
C569        C570   1.399       .  A
C570        C571   1.404       .  A
C570        H574   1.080       .  S
C571        C572   1.416       .  A
C571        C595   1.482       .  S
C572        H575   1.083       .  S
C576        C577   1.404       .  A
C576        C581   1.415       .  A
C577        C578   1.397       .  A
C577        H582   1.078       .  S
C578        C579   1.399       .  A
C579        C580   1.405       .  A
C579        H583   1.080       .  S
C580        C581   1.415       .  A
C580        C617   1.486       .  S
C581        H584   1.083       .  S
In585       O587   2.291       .  S
In585       O588   2.196       .  S
In585       O596   2.193       .  S
In585       O590   2.278       .  S
In585       O592   2.280       .  S
In585       O593   2.178       .  S
In585       O594   2.180       .  S
In585       O597   2.300       .  S
C586       C1053   1.487       .  S
C586        O592   1.268       .  A
C586        O594   1.256       .  A
O587        C595   1.265       .  A
O588        C595   1.263       .  A
C589       C1041   1.475       .  S
C589        O596   1.255       .  A
C589        O590   1.267       .  A
C591        C628   1.486       .  S
C591        O593   1.262       .  A
C591        O597   1.265       .  A
In598       O600   2.314       .  S
In598       O601   2.168       .  S
In598       O609   2.174       .  S
In598       O603   2.292       .  S
In598       O605   2.281       .  S
In598       O606   2.154       .  S
In598       O607   2.181       .  S
In598       O610   2.316       .  S
C599       C1017   1.470       .  S
C599        O605   1.270       .  A
C599        O607   1.254       .  A
O600        C608   1.267       .  A
O601        C608   1.257       .  A
C602       C1029   1.486       .  S
C602        O609   1.255       .  A
C602        O603   1.271       .  A
C604        O606   1.259       .  A
C604        O610   1.266       .  A
In611       O613   2.309       .  S
In611       O614   2.163       .  S
In611       O622   2.185       .  S
In611       O616   2.282       .  S
In611       O618   2.277       .  S
In611       O619   2.195       .  S
In611       O620   2.195       .  S
In611       O623   2.308       .  S
C612        C993   1.472       .  S
C612        O618   1.269       .  A
C612        O620   1.256       .  A
O613        C621   1.267       .  A
O614        C621   1.262       .  A
C615       C1005   1.478       .  S
C615        O622   1.256       .  A
C615        O616   1.269       .  A
C617        O619   1.259       .  A
C617        O623   1.265       .  A
C624        C625   1.432       .  A
C624       C1633   1.529   1_455  S
C625        C626   1.407       .  A
C625        H630   1.076       .  S
C626        C627   1.387       .  A
C627        H631   1.082       .  S
C628        C629   1.408       .  A
C629        H632   1.076       .  S
C633       C1722   1.433       .  A
C633        C638   1.433       .  A
C633        C712   1.530       .  S
C634       C1721   1.433   1_455  A
C634        C635   1.407       .  A
C634        H639   1.076       .  S
C635       C1724   1.387   1_455  A
C635        C683   1.483       .  S
C636       C1723   1.387       .  A
C636        C637   1.384       .  A
C636        H640   1.085       .  S
C637        C638   1.408       .  A
C637        C666   1.481       .  S
C638        H641   1.077       .  S
C642        C643   1.400       .  A
C642        C709   1.481       .  S
C643        C644   1.395   1_565  A
C643        H648   1.082       .  S
C644       C1197   1.493   1_545  S
C645        C646   1.403       .  A
C645        H649   1.080       .  S
C646        C647   1.416       .  A
C646        C670   1.482       .  S
C647        H650   1.083       .  S
C651        C652   1.405       .  A
C651        C656   1.417       .  A
C651        C679   1.484       .  S
C652        C653   1.394       .  A
C652        H657   1.080       .  S
C653       C1188   1.493   1_455  S
C654        C655   1.403       .  A
C654        H658   1.079       .  S
C655        C696   1.485       .  S
C656        H659   1.082       .  S
In660       O662   2.286       .  S
In660       O663   2.195       .  S
In660       O671   2.192   1_554  S
In660       O665   2.277   1_554  S
In660       O667   2.285       .  S
In660       O668   2.205       .  S
In660       O669   2.177       .  S
In660       O672   2.294       .  S
C661        C984   1.479       .  S
C661        O667   1.272       .  A
C661        O669   1.255       .  A
O662        C670   1.268       .  A
O663        C670   1.265       .  A
C664       C1008   1.467       .  S
C664        O671   1.254       .  A
C664        O665   1.265       .  A
C666        O668   1.262       .  A
C666        O672   1.261       .  A
In673       O675   2.306       .  S
In673       O676   2.179       .  S
In673       O684   2.199   1_554  S
In673       O678   2.283   1_554  S
In673       O680   2.275       .  S
In673       O681   2.183       .  S
In673       O682   2.195       .  S
In673       O685   2.301       .  S
C674        C969   1.467       .  S
C674        O680   1.267       .  A
C674        O682   1.254       .  A
O675        C683   1.265       .  A
O676        C683   1.260       .  A
C677       C1080   1.493       .  S
C677        O684   1.258       .  A
C677        O678   1.269       .  A
C679        O681   1.260       .  A
C679        O685   1.266       .  A
In686       O688   2.307       .  S
In686       O689   2.179       .  S
In686       O697   2.183   1_554  S
In686       O691   2.279   1_554  S
In686       O693   2.279       .  S
In686       O694   2.179       .  S
In686       O695   2.198       .  S
In686       O698   2.322       .  S
C687        C957   1.470       .  S
C687        O693   1.267       .  A
C687        O695   1.254       .  A
O688        C696   1.267       .  A
O689        C696   1.261       .  A
C690       C1056   1.468       .  S
C690        O697   1.255       .  A
C690        O691   1.269       .  A
C692        C714   1.484       .  S
C692        O694   1.257       .  A
C692        O698   1.263       .  A
In699       O701   2.302       .  S
In699       O702   2.189       .  S
In699       O710   2.170       .  S
In699       O704   2.282       .  S
In699       O706   2.284   1_554  S
In699       O707   2.172       .  S
In699       O708   2.170   1_554  S
In699       O711   2.315       .  S
C700       C1032   1.472       .  S
C700        O706   1.271       .  A
C700        O708   1.255       .  A
O701        C709   1.265       .  A
O702        C709   1.262       .  A
C703        C945   1.487       .  S
C703        O710   1.257       .  A
C703        O704   1.272       .  A
C705        C716   1.489       .  S
C705        O707   1.260       .  A
C705        O711   1.267       .  A
C712       C1801   1.435       .  A
C712        C717   1.436       .  A
C713       C1800   1.435   1_455  A
C713        C714   1.405       .  A
C713        H718   1.075       .  S
C714       C1803   1.385   1_455  A
C715       C1802   1.385       .  A
C715        C716   1.387       .  A
C715        H719   1.084       .  S
C716        C717   1.410       .  A
C717        H720   1.077       .  S
C721        C722   1.436       .  A
C721        C726   1.436       .  A
C722        C723   1.407       .  A
C722        H727   1.075       .  S
C723        C724   1.386       .  A
C723        C767   1.484       .  S
C724        C725   1.384       .  A
C724        H728   1.085       .  S
C725        C726   1.408       .  A
C725        C740   1.485       .  S
C726        H729   1.075       .  S
In730       O732   2.312       .  S
In730       O733   2.181       .  S
In730       O741   2.198       .  S
In730       O735   2.276       .  S
In730       O737   2.275       .  S
In730       O738   2.183       .  S
In730       O739   2.190       .  S
In730       O742   2.314       .  S
C731       C1068   1.476       .  S
C731        O737   1.271       .  A
C731        O739   1.256       .  A
O732        C740   1.264       .  A
O733        C740   1.260       .  A
C734        C933   1.475       .  S
C734        O741   1.256       .  A
C734        O735   1.268       .  A
C736        C743   1.484       .  S
C736        O738   1.259       .  A
C736        O742   1.265       .  A
C743        C744   1.402       .  A
C743        C748   1.415       .  A
C744        C745   1.395       .  A
C744        H749   1.082       .  S
C745        C746   1.396       .  A
C745        C754   1.492       .  S
C746        C747   1.403       .  A
C746        H750   1.080       .  S
C747        C748   1.418       .  A
C747        C797   1.482       .  S
C748        H751   1.082       .  S
C752        C753   1.404       .  A
C752        C757   1.417       .  A
C752        C780   1.481       .  S
C753        C754   1.395       .  A
C753        H758   1.080       .  S
C754        C755   1.396       .  A
C755        C756   1.401       .  A
C755        H759   1.080       .  S
C756        C757   1.414       .  A
C756        C771   1.484       .  S
C757        H760   1.082       .  S
In761       O763   2.308       .  S
In761       O764   2.175       .  S
In761       O772   2.179       .  S
In761       O766   2.283       .  S
In761       O768   2.283       .  S
In761       O769   2.180       .  S
In761       O770   2.186       .  S
In761       O773   2.315       .  S
C762        C996   1.473       .  S
C762        O768   1.271       .  A
C762        O770   1.254       .  A
O763        C771   1.267       .  A
O764        C771   1.260       .  A
C765        C924   1.485       .  S
C765        O772   1.257       .  A
C765        O766   1.273       .  A
C767        O769   1.258       .  A
C767        O773   1.264       .  A
In774       O776   2.303       .  S
In774       O777   2.184       .  S
In774       O785   2.193       .  S
In774       O779   2.278       .  S
In774       O781   2.267       .  S
In774       O782   2.196       .  S
In774       O783   2.199       .  S
In774       O786   2.292       .  S
C775       C1020   1.464       .  S
C775        O781   1.265       .  A
C775        O783   1.255       .  A
O776        C784   1.265       .  A
O777        C784   1.261       .  A
C778        C909   1.489       .  S
C778        O785   1.258       .  A
C778        O779   1.268       .  A
C780        O782   1.261       .  A
C780        O786   1.264       .  A
C784        C804   1.484       .  S
In787       O789   2.292       .  S
In787       O790   2.196       .  S
In787       O798   2.191       .  S
In787       O792   2.279       .  S
In787       O794   2.287       .  S
In787       O795   2.193       .  S
In787       O796   2.193       .  S
In787       O799   2.298       .  S
C788       C1044   1.488       .  S
C788        O794   1.270       .  A
C788        O796   1.257       .  A
O789        C797   1.264       .  A
O790        C797   1.262       .  A
C791        C897   1.469       .  S
C791        O798   1.254       .  A
C791        O792   1.267       .  A
C793        C802   1.484       .  S
C793        O795   1.262       .  A
C793        O799   1.265       .  A
C800        C801   1.434       .  A
C800        C805   1.434       .  A
C801        C802   1.408       .  A
C801        H806   1.075       .  S
C802        C803   1.387       .  A
C803        C804   1.387       .  A
C803        H807   1.084       .  S
C804        C805   1.408       .  A
C805        H808   1.075       .  S
C809        C810   1.434       .  A
C809        C814   1.435       .  A
C809        C888   1.530       .  S
C810        C811   1.406       .  A
C810        H815   1.076       .  S
C811        C812   1.384       .  A
C811        C846   1.483       .  S
C812        C813   1.384       .  A
C812        H816   1.083       .  S
C813        C814   1.409       .  A
C813        C881   1.487       .  S
C814        H817   1.076       .  S
C818       C1907   1.414   1_455  A
C818        C823   1.404       .  A
C818        C842   1.485       .  S
C819       C1906   1.414       .  A
C819        C820   1.416       .  A
C819        H824   1.082       .  S
C820        C821   1.404       .  A
C820        C859   1.483       .  S
C821        C822   1.397       .  A
C821        H825   1.080       .  S
C822       C1911   1.397       .  A
C822        C829   1.495       .  S
C823       C1910   1.397   1_455  A
C823        H826   1.079       .  S
C827        C828   1.403       .  A
C827        C832   1.416       .  A
C827        C872   1.484       .  S
C828        C829   1.398       .  A
C828        H833   1.079       .  S
C829       C1918   1.398       .  A
C830       C1917   1.398   1_455  A
C830        C831   1.403       .  A
C830        H834   1.081       .  S
C831       C1920   1.415   1_455  A
C831        C885   1.485       .  S
C832       C1919   1.415       .  A
C832        H835   1.083       .  S
In836       O838   2.314       .  S
In836       O839   2.171       .  S
In836       O847   2.195       .  S
In836       O841   2.274       .  S
In836       O843   2.278       .  S
In836       O844   2.180       .  S
In836       O845   2.198       .  S
In836       O848   2.308       .  S
C837        C936   1.476       .  S
C837        O843   1.269       .  A
C837        O845   1.254       .  A
O838        C846   1.263       .  A
O839        C846   1.258       .  A
C840        C972   1.476       .  S
C840        O847   1.255       .  A
C840        O841   1.270       .  A
C842        O844   1.258       .  A
C842        O848   1.266       .  A
In849       O851   2.295       .  S
In849       O852   2.190       .  S
In849       O860   2.184       .  S
In849       O854   2.281       .  S
In849       O856   2.277       .  S
In849       O857   2.176       .  S
In849       O858   2.183       .  S
In849       O861   2.299       .  S
C850        C921   1.473       .  S
C850        O856   1.268       .  A
C850        O858   1.255       .  A
O851        C859   1.265       .  A
O852        C859   1.261       .  A
C853        C981   1.483       .  S
C853        O860   1.256       .  A
C853        O854   1.268       .  A
C855        C890   1.484       .  S
C855        O857   1.262       .  A
C855        O861   1.265       .  A
In862       O864   2.292       .  S
In862       O865   2.195       .  S
In862       O873   2.188       .  S
In862       O867   2.280       .  S
In862       O869   2.276       .  S
In862       O870   2.185       .  S
In862       O871   2.192       .  S
In862       O874   2.299       .  S
C863        C948   1.471       .  S
C863        O869   1.264       .  A
C863        O871   1.254       .  A
O864        C872   1.266       .  A
O865        C872   1.263       .  A
C866        C912   1.473       .  S
C866        O873   1.255       .  A
C866        O867   1.268       .  A
C868        C892   1.485       .  S
C868        O870   1.261       .  A
C868        O874   1.263       .  A
In875       O877   2.306       .  S
In875       O878   2.196       .  S
In875       O886   2.192       .  S
In875       O880   2.277       .  S
In875       O882   2.283       .  S
In875       O883   2.168       .  S
In875       O884   2.187       .  S
In875       O887   2.307       .  S
C876        C900   1.478       .  S
C876        O882   1.269       .  A
C876        O884   1.255       .  A
O877        C885   1.264       .  A
O878        C885   1.259       .  A
C879        C960   1.472       .  S
C879        O886   1.255       .  A
C879        O880   1.269       .  A
C881        O883   1.262       .  A
C881        O887   1.267       .  A
C888        C889   1.432       .  A
C888        C893   1.432       .  A
C889        C890   1.407       .  A
C889        H894   1.076       .  S
C890        C891   1.386       .  A
C891        C892   1.387       .  A
C891        H895   1.083       .  S
C892        C893   1.410       .  A
C893        H896   1.077       .  S
C897        C898   1.397       .  A
C897        C902   1.413       .  A
C898        C899   1.396       .  A
C898        H907   1.084       .  S
C899        C900   1.418       .  A
C899        S903   1.812       .  S
C900        C901   1.403       .  A
C901        C902   1.405       .  A
C901        H908   1.083       .  S
C902        S904   1.800       .  S
S903        H906   1.407       .  S
S904        H905   1.405       .  S
C909        C910   1.407       .  A
C909        C914   1.418       .  A
C910        C911   1.390       .  A
C910        H919   1.083       .  S
C911        C912   1.410       .  A
C911        S915   1.807       .  S
C912        C913   1.404       .  A
C913        C914   1.407       .  A
C913        H920   1.083       .  S
C914        S916   1.798       .  S
S915        H918   1.407       .  S
S916        H917   1.408       .  S
C921        C922   1.406       .  A
C921        C926   1.410       .  A
C922        C923   1.407       .  A
C922        H931   1.083       .  S
C923        C924   1.415       .  A
C923        S927   1.799       .  S
C924        C925   1.407       .  A
C925        C926   1.390       .  A
C925        H932   1.083       .  S
C926        S928   1.807       .  S
S927        H930   1.407       .  S
S928        H929   1.407       .  S
C933        C934   1.399       .  A
C933        C938   1.417       .  A
C934        C935   1.401       .  A
C934        H943   1.083       .  S
C935        C936   1.418       .  A
C935        S939   1.805       .  S
C936        C937   1.399       .  A
C937        C938   1.399       .  A
C937        H944   1.083       .  S
C938        S940   1.805       .  S
S939        H942   1.407       .  S
S940        H941   1.407       .  S
C945        C946   1.409       .  A
C945        C950   1.415       .  A
C946        C947   1.389       .  A
C946        H955   1.083       .  S
C947        C948   1.408       .  A
C947        S951   1.807       .  S
C948        C949   1.406       .  A
C949        C950   1.407       .  A
C949        H956   1.083       .  S
C950        S952   1.797       .  S
S951        H954   1.407       .  S
S952        H953   1.407       .  S
C957        C958   1.397       .  A
C957        C962   1.416       .  A
C958        C959   1.399       .  A
C958        H967   1.083       .  S
C959        C960   1.417       .  A
C959        S963   1.805       .  S
C960        C961   1.398       .  A
C961        C962   1.401       .  A
C961        H968   1.083       .  S
C962        S964   1.805       .  S
S963        H966   1.407       .  S
S964        H965   1.407       .  S
C969        C970   1.396       .  A
C969        C974   1.414       .  A
C970        C971   1.399       .  A
C970        H979   1.084       .  S
C971        C972   1.420       .  A
C971        S975   1.805       .  S
C972        C973   1.399       .  A
C973        C974   1.399       .  A
C973        H980   1.084       .  S
C974        S976   1.804       .  S
S975        H978   1.407       .  S
S976        H977   1.406       .  S
C981        C982   1.403       .  A
C981        C986   1.417       .  A
C982        C983   1.389       .  A
C982        H991   1.084       .  S
C983        C984   1.416       .  A
C983        S987   1.808       .  S
C984        C985   1.405       .  A
C985        C986   1.408       .  A
C985        H992   1.083       .  S
C986        S988   1.799       .  S
S987        H990   1.408       .  S
S988        H989   1.407       .  S
C993        C994   1.398       .  A
C993        C998   1.417       .  A
C994        C995   1.400       .  A
C994       H1003   1.083       .  S
C995        C996   1.418       .  A
C995        S999   1.805       .  S
C996        C997   1.398       .  A
C997        C998   1.400       .  A
C997       H1004   1.083       .  S
C998       S1000   1.805       .  S
S999       H1002   1.407       .  S
S1000      H1001   1.407       .  S
C1005      C1006   1.406       .  A
C1005      C1010   1.412       .  A
C1006      C1007   1.391       .  A
C1006      H1015   1.084       .  S
C1007      C1008   1.407       .  A
C1007      S1011   1.806       .  S
C1008      C1009   1.406       .  A
C1009      C1010   1.407       .  A
C1009      H1016   1.083       .  S
C1010      S1012   1.800       .  S
S1011      H1014   1.407       .  S
S1012      H1013   1.407       .  S
C1017      C1018   1.398       .  A
C1017      C1022   1.417       .  A
C1018      C1019   1.401       .  A
C1018      H1027   1.084       .  S
C1019      C1020   1.415       .  A
C1019      S1023   1.803       .  S
C1020      C1021   1.395       .  A
C1021      C1022   1.396       .  A
C1021      H1028   1.084       .  S
C1022      S1024   1.805       .  S
S1023      H1026   1.406       .  S
S1024      H1025   1.406       .  S
C1029      C1030   1.406       .  A
C1029      C1034   1.416       .  A
C1030      C1031   1.387       .  A
C1030      H1039   1.084       .  S
C1031      C1032   1.411       .  A
C1031      S1035   1.809       .  S
C1032      C1033   1.405       .  A
C1033      C1034   1.410       .  A
C1033      H1040   1.083       .  S
C1034      S1036   1.798       .  S
S1035      H1038   1.407       .  S
S1036      H1037   1.407       .  S
C1041      C1042   1.407       .  A
C1041      C1046   1.409       .  A
C1042      C1043   1.409       .  A
C1042      H1051   1.083       .  S
C1043      C1044   1.415       .  A
C1043      S1047   1.799       .  S
C1044      C1045   1.408       .  A
C1045      C1046   1.392       .  A
C1045      H1052   1.083       .  S
C1046      S1048   1.807       .  S
S1047      H1050   1.407       .  S
S1048      H1049   1.407       .  S
C1053      C1054   1.408       .  A
C1053      C1058   1.418       .  A
C1054      C1055   1.388       .  A
C1054      H1063   1.084       .  S
C1055      C1056   1.408       .  A
C1055      S1059   1.808       .  S
C1056      C1057   1.403       .  A
C1057      C1058   1.407       .  A
C1057      H1064   1.084       .  S
C1058      S1060   1.797       .  S
S1059      H1062   1.407       .  S
S1060      H1061   1.407       .  S
C1065      C1066   1.406       .  A
C1065      C1070   1.407       .  A
C1066      C1067   1.401       .  A
C1066      H1075   1.084       .  S
C1067      C1068   1.410       .  A
C1067      S1071   1.801       .  S
C1068      C1069   1.408       .  A
C1069      C1070   1.398       .  A
C1069      H1076   1.084       .  S
C1070      S1072   1.807       .  S
S1071      H1074   1.407       .  S
S1072      H1073   1.404       .  S
C1077      C1078   1.406       .  A
C1077      C1082   1.411       .  A
C1078      C1079   1.409       .  A
C1078      H1087   1.083       .  S
C1079      C1080   1.417       .  A
C1079      S1083   1.797       .  S
C1080      C1081   1.408       .  A
C1081      C1082   1.392       .  A
C1081      H1088   1.083       .  S
C1082      S1084   1.807       .  S
S1083      H1086   1.407       .  S
S1084      H1085   1.407       .  S
C1089      C1634   1.433   1_545  A
C1089      C1094   1.435       .  A
C1090      C1633   1.433       .  A
C1090      C1091   1.406       .  A
C1090      H1095   1.076       .  S
C1091      C1092   1.385       .  A
C1091      C1148   1.484       .  S
C1092      C1637   1.384       .  A
C1092      H1096   1.083       .  S
C1093      C1636   1.384   1_545  A
C1093      C1094   1.408       .  A
C1093      C1165   1.487       .  S
C1094      H1097   1.076       .  S
In1098     O1100   2.303       .  S
In1098     O1101   2.165       .  S
In1098     O1109   2.199       .  S
In1098     O1103   2.277       .  S
In1098     O1105   2.287       .  S
In1098     O1106   2.181       .  S
In1098     O1107   2.199       .  S
In1098     O1110   2.309       .  S
C1099      C1621   1.479       .  S
C1099      O1105   1.267       .  A
C1099      O1107   1.254       .  A
O1100      C1108   1.266       .  A
O1101      C1108   1.261       .  A
C1102      C1609   1.465       .  S
C1102      O1109   1.253       .  A
C1102      O1103   1.266       .  A
C1104      C1120   1.484       .  S
C1104      O1106   1.258       .  A
C1104      O1110   1.265       .  A
C1108      C1170   1.484       .  S
C1111      C1112   1.405       .  A
C1111      C1116   1.413       .  A
C1111      C1152   1.485       .  S
C1112      C1113   1.397       .  A
C1112      H1117   1.078       .  S
C1113      C1114   1.399       .  A
C1113      C1666   1.500       .  S
C1114      C1115   1.404       .  A
C1114      H1118   1.080       .  S
C1115      C1116   1.416       .  A
C1115      C1139   1.482       .  S
C1116      H1119   1.083       .  S
C1120      C1121   1.404       .  A
C1120      C1125   1.415       .  A
C1121      C1122   1.397       .  A
C1121      H1126   1.078       .  S
C1122      C1123   1.399       .  A
C1122      C1657   1.500   1_545  S
C1123      C1124   1.405       .  A
C1123      H1127   1.080       .  S
C1124      C1125   1.415       .  A
C1124      C1161   1.486       .  S
C1125      H1128   1.083       .  S
In1129     O1131   2.291       .  S
In1129     O1132   2.196       .  S
In1129     O1140   2.193       .  S
In1129     O1134   2.278       .  S
In1129     O1136   2.280       .  S
In1129     O1137   2.178       .  S
In1129     O1138   2.180       .  S
In1129     O1141   2.300       .  S
C1130      C1597   1.487       .  S
C1130      O1136   1.268       .  A
C1130      O1138   1.256       .  A
O1131      C1139   1.265       .  A
O1132      C1139   1.263       .  A
C1133      C1585   1.475       .  S
C1133      O1140   1.255       .  A
C1133      O1134   1.267       .  A
C1135      C1172   1.486       .  S
C1135      O1137   1.262       .  A
C1135      O1141   1.265       .  A
In1142     O1144   2.314       .  S
In1142     O1145   2.168       .  S
In1142     O1153   2.174       .  S
In1142     O1147   2.292       .  S
In1142     O1149   2.281       .  S
In1142     O1150   2.154       .  S
In1142     O1151   2.181       .  S
In1142     O1154   2.316       .  S
C1143      C1561   1.470       .  S
C1143      O1149   1.270       .  A
C1143      O1151   1.254       .  A
O1144      C1152   1.267       .  A
O1145      C1152   1.257       .  A
C1146      C1573   1.486       .  S
C1146      O1153   1.255       .  A
C1146      O1147   1.271       .  A
C1148      O1150   1.259       .  A
C1148      O1154   1.266       .  A
In1155     O1157   2.309       .  S
In1155     O1158   2.163       .  S
In1155     O1166   2.185       .  S
In1155     O1160   2.282       .  S
In1155     O1162   2.277       .  S
In1155     O1163   2.195       .  S
In1155     O1164   2.195       .  S
In1155     O1167   2.308       .  S
C1156      C1537   1.472       .  S
C1156      O1162   1.269       .  A
C1156      O1164   1.256       .  A
O1157      C1165   1.267       .  A
O1158      C1165   1.262       .  A
C1159      C1549   1.478       .  S
C1159      O1166   1.256       .  A
C1159      O1160   1.269       .  A
C1161      O1163   1.259       .  A
C1161      O1167   1.265       .  A
C1168      C1169   1.432       .  A
C1168      C1717   1.433   1_545  A
C1169      C1170   1.407       .  A
C1169      H1174   1.076       .  S
C1170      C1171   1.387   1_545  A
C1171      C1716   1.385       .  A
C1171      H1175   1.082       .  S
C1172      C1715   1.385       .  A
C1172      C1173   1.408       .  A
C1173      C1712   1.433       .  A
C1173      H1176   1.076       .  S
C1177      C1182   1.433       .  A
C1177      C1256   1.530       .  S
C1178      C1179   1.407       .  A
C1178      H1183   1.076       .  S
C1179      C1227   1.483       .  S
C1180      C1181   1.384       .  A
C1180      H1184   1.085       .  S
C1181      C1182   1.408       .  A
C1181      C1210   1.481       .  S
C1182      H1185   1.077       .  S
C1186      C1187   1.400       .  A
C1186      C1735   1.415       .  A
C1186      C1253   1.481       .  S
C1187      C1188   1.395       .  A
C1187      H1192   1.082       .  S
C1188      C1733   1.399       .  A
C1189      C1732   1.399       .  A
C1189      C1190   1.403       .  A
C1189      H1193   1.080       .  S
C1190      C1191   1.416       .  A
C1190      C1214   1.482       .  S
C1191      C1730   1.415   1_545  A
C1191      H1194   1.083       .  S
C1195      C1196   1.405       .  A
C1195      C1200   1.417   1_545  A
C1195      C1223   1.484       .  S
C1196      C1197   1.394   1_545  A
C1196      H1201   1.080       .  S
C1197      C1742   1.396       .  A
C1198      C1741   1.396       .  A
C1198      C1199   1.403       .  A
C1198      H1202   1.079       .  S
C1199      C1744   1.416       .  A
C1199      C1240   1.485       .  S
C1200      C1743   1.416       .  A
C1200      H1203   1.082       .  S
In1204     O1206   2.286       .  S
In1204     O1207   2.195       .  S
In1204     O1215   2.192   1_554  S
In1204     O1209   2.277   1_554  S
In1204     O1211   2.285       .  S
In1204     O1212   2.205       .  S
In1204     O1213   2.177       .  S
In1204     O1216   2.294       .  S
C1205      C1528   1.479       .  S
C1205      O1211   1.272       .  A
C1205      O1213   1.255       .  A
O1206      C1214   1.268       .  A
O1207      C1214   1.265       .  A
C1208      C1552   1.467       .  S
C1208      O1215   1.254       .  A
C1208      O1209   1.265       .  A
C1210      O1212   1.262       .  A
C1210      O1216   1.261       .  A
In1217     O1219   2.306       .  S
In1217     O1220   2.179       .  S
In1217     O1228   2.199   1_554  S
In1217     O1222   2.283   1_554  S
In1217     O1224   2.275       .  S
In1217     O1225   2.183       .  S
In1217     O1226   2.195       .  S
In1217     O1229   2.301       .  S
C1218      C1513   1.467       .  S
C1218      O1224   1.267       .  A
C1218      O1226   1.254       .  A
O1219      C1227   1.265       .  A
O1220      C1227   1.260       .  A
C1221      C1624   1.493       .  S
C1221      O1228   1.258       .  A
C1221      O1222   1.269       .  A
C1223      O1225   1.260       .  A
C1223      O1229   1.266       .  A
In1230     O1232   2.307       .  S
In1230     O1233   2.179       .  S
In1230     O1241   2.183   1_554  S
In1230     O1235   2.279   1_554  S
In1230     O1237   2.279       .  S
In1230     O1238   2.179       .  S
In1230     O1239   2.198       .  S
In1230     O1242   2.322       .  S
C1231      C1501   1.470       .  S
C1231      O1237   1.267       .  A
C1231      O1239   1.254       .  A
O1232      C1240   1.267       .  A
O1233      C1240   1.261       .  A
C1234      C1600   1.468       .  S
C1234      O1241   1.255       .  A
C1234      O1235   1.269       .  A
C1236      C1258   1.484       .  S
C1236      O1238   1.257       .  A
C1236      O1242   1.263       .  A
In1243     O1245   2.302       .  S
In1243     O1246   2.189       .  S
In1243     O1254   2.170       .  S
In1243     O1248   2.282       .  S
In1243     O1250   2.284   1_554  S
In1243     O1251   2.172       .  S
In1243     O1252   2.170   1_554  S
In1243     O1255   2.315       .  S
C1244      C1576   1.472       .  S
C1244      O1250   1.271       .  A
C1244      O1252   1.255       .  A
O1245      C1253   1.265       .  A
O1246      C1253   1.262       .  A
C1247      C1489   1.487       .  S
C1247      O1254   1.257       .  A
C1247      O1248   1.272       .  A
C1249      C1260   1.489       .  S
C1249      O1251   1.260       .  A
C1249      O1255   1.267       .  A
C1256      C1261   1.436       .  A
C1257      C1258   1.405       .  A
C1257      H1262   1.075       .  S
C1259      C1260   1.387       .  A
C1259      H1263   1.084       .  S
C1260      C1261   1.410       .  A
C1261      H1264   1.077       .  S
C1265      C1266   1.436       .  A
C1265      C1270   1.436       .  A
C1265      C1888   1.532   1_545  S
C1266      C1267   1.407       .  A
C1266      H1271   1.075       .  S
C1267      C1268   1.386       .  A
C1267      C1311   1.484       .  S
C1268      C1269   1.384       .  A
C1268      H1272   1.085       .  S
C1269      C1270   1.408       .  A
C1269      C1284   1.485       .  S
C1270      H1273   1.075       .  S
In1274     O1276   2.312       .  S
In1274     O1277   2.181       .  S
In1274     O1285   2.198       .  S
In1274     O1279   2.276       .  S
In1274     O1281   2.275       .  S
In1274     O1282   2.183       .  S
In1274     O1283   2.190       .  S
In1274     O1286   2.314       .  S
C1275      C1612   1.476       .  S
C1275      O1281   1.271       .  A
C1275      O1283   1.256       .  A
O1276      C1284   1.264       .  A
O1277      C1284   1.260       .  A
C1278      C1477   1.475       .  S
C1278      O1285   1.256       .  A
C1278      O1279   1.268       .  A
C1280      C1287   1.484       .  S
C1280      O1282   1.259       .  A
C1280      O1286   1.265       .  A
C1287      C1288   1.402       .  A
C1287      C1292   1.415       .  A
C1288      C1289   1.395       .  A
C1288      H1293   1.082       .  S
C1289      C1290   1.396       .  A
C1289      C1298   1.492       .  S
C1290      C1291   1.403       .  A
C1290      H1294   1.080       .  S
C1291      C1292   1.418       .  A
C1291      C1341   1.482       .  S
C1292      H1295   1.082       .  S
C1296      C1297   1.404       .  A
C1296      C1301   1.417       .  A
C1296      C1324   1.481       .  S
C1297      C1298   1.395       .  A
C1297      H1302   1.080       .  S
C1298      C1299   1.396       .  A
C1299      C1300   1.401       .  A
C1299      H1303   1.080       .  S
C1300      C1301   1.414       .  A
C1300      C1315   1.484       .  S
C1301      H1304   1.082       .  S
In1305     O1307   2.308       .  S
In1305     O1308   2.175       .  S
In1305     O1316   2.179       .  S
In1305     O1310   2.283       .  S
In1305     O1312   2.283       .  S
In1305     O1313   2.180       .  S
In1305     O1314   2.186       .  S
In1305     O1317   2.315       .  S
C1306      C1540   1.473       .  S
C1306      O1312   1.271       .  A
C1306      O1314   1.254       .  A
O1307      C1315   1.267       .  A
O1308      C1315   1.260       .  A
C1309      C1468   1.485       .  S
C1309      O1316   1.257       .  A
C1309      O1310   1.273       .  A
C1311      O1313   1.258       .  A
C1311      O1317   1.264       .  A
In1318     O1320   2.303       .  S
In1318     O1321   2.184       .  S
In1318     O1329   2.193       .  S
In1318     O1323   2.278       .  S
In1318     O1325   2.267       .  S
In1318     O1326   2.196       .  S
In1318     O1327   2.199       .  S
In1318     O1330   2.292       .  S
C1319      C1564   1.464       .  S
C1319      O1325   1.265       .  A
C1319      O1327   1.255       .  A
O1320      C1328   1.265       .  A
O1321      C1328   1.261       .  A
C1322      C1453   1.489       .  S
C1322      O1329   1.258       .  A
C1322      O1323   1.268       .  A
C1324      O1326   1.261       .  A
C1324      O1330   1.264       .  A
C1328      C1348   1.484       .  S
In1331     O1333   2.292       .  S
In1331     O1334   2.196       .  S
In1331     O1342   2.191       .  S
In1331     O1336   2.279       .  S
In1331     O1338   2.287       .  S
In1331     O1339   2.193       .  S
In1331     O1340   2.193       .  S
In1331     O1343   2.298       .  S
C1332      C1588   1.488       .  S
C1332      O1338   1.270       .  A
C1332      O1340   1.257       .  A
O1333      C1341   1.264       .  A
O1334      C1341   1.262       .  A
C1335      C1441   1.469       .  S
C1335      O1342   1.254       .  A
C1335      O1336   1.267       .  A
C1337      C1346   1.484       .  S
C1337      O1339   1.262       .  A
C1337      O1343   1.265       .  A
C1344      C1345   1.434       .  A
C1344      C1349   1.434       .  A
C1344      C1809   1.532       .  S
C1345      C1346   1.408       .  A
C1345      H1350   1.075       .  S
C1346      C1347   1.387       .  A
C1347      C1348   1.387       .  A
C1347      H1351   1.084       .  S
C1348      C1349   1.408       .  A
C1349      H1352   1.075       .  S
C1353      C1354   1.434       .  A
C1353      C1358   1.435       .  A
C1353      C1432   1.530       .  S
C1354      C1355   1.406       .  A
C1354      H1359   1.076       .  S
C1355      C1356   1.384       .  A
C1355      C1390   1.483       .  S
C1356      C1357   1.384       .  A
C1356      H1360   1.083       .  S
C1357      C1358   1.409       .  A
C1357      C1425   1.487       .  S
C1358      H1361   1.076       .  S
C1362      C1367   1.404       .  A
C1362      C1386   1.485       .  S
C1363      C1364   1.416       .  A
C1363      H1368   1.082       .  S
C1364      C1365   1.404       .  A
C1364      C1403   1.483       .  S
C1365      C1366   1.397       .  A
C1365      H1369   1.080       .  S
C1366      C1373   1.495       .  S
C1367      H1370   1.079       .  S
C1371      C1372   1.403       .  A
C1371      C1376   1.416       .  A
C1371      C1416   1.484       .  S
C1372      C1373   1.398       .  A
C1372      H1377   1.079       .  S
C1374      C1375   1.403       .  A
C1374      H1378   1.081       .  S
C1375      C1429   1.485       .  S
C1376      H1379   1.083       .  S
In1380     O1382   2.314       .  S
In1380     O1383   2.171       .  S
In1380     O1391   2.195       .  S
In1380     O1385   2.274       .  S
In1380     O1387   2.278       .  S
In1380     O1388   2.180       .  S
In1380     O1389   2.198       .  S
In1380     O1392   2.308       .  S
C1381      C1480   1.476       .  S
C1381      O1387   1.269       .  A
C1381      O1389   1.254       .  A
O1382      C1390   1.263       .  A
O1383      C1390   1.258       .  A
C1384      C1516   1.476       .  S
C1384      O1391   1.255       .  A
C1384      O1385   1.270       .  A
C1386      O1388   1.258       .  A
C1386      O1392   1.266       .  A
In1393     O1395   2.295       .  S
In1393     O1396   2.190       .  S
In1393     O1404   2.184       .  S
In1393     O1398   2.281       .  S
In1393     O1400   2.277       .  S
In1393     O1401   2.176       .  S
In1393     O1402   2.183       .  S
In1393     O1405   2.299       .  S
C1394      C1465   1.473       .  S
C1394      O1400   1.268       .  A
C1394      O1402   1.255       .  A
O1395      C1403   1.265       .  A
O1396      C1403   1.261       .  A
C1397      C1525   1.483       .  S
C1397      O1404   1.256       .  A
C1397      O1398   1.268       .  A
C1399      C1434   1.484       .  S
C1399      O1401   1.262       .  A
C1399      O1405   1.265       .  A
In1406     O1408   2.292       .  S
In1406     O1409   2.195       .  S
In1406     O1417   2.188       .  S
In1406     O1411   2.280       .  S
In1406     O1413   2.276       .  S
In1406     O1414   2.185       .  S
In1406     O1415   2.192       .  S
In1406     O1418   2.299       .  S
C1407      C1492   1.471       .  S
C1407      O1413   1.264       .  A
C1407      O1415   1.254       .  A
O1408      C1416   1.266       .  A
O1409      C1416   1.263       .  A
C1410      C1456   1.473       .  S
C1410      O1417   1.255       .  A
C1410      O1411   1.268       .  A
C1412      C1436   1.485       .  S
C1412      O1414   1.261       .  A
C1412      O1418   1.263       .  A
In1419     O1421   2.306       .  S
In1419     O1422   2.196       .  S
In1419     O1430   2.192       .  S
In1419     O1424   2.277       .  S
In1419     O1426   2.283       .  S
In1419     O1427   2.168       .  S
In1419     O1428   2.187       .  S
In1419     O1431   2.307       .  S
C1420      C1444   1.478       .  S
C1420      O1426   1.269       .  A
C1420      O1428   1.255       .  A
O1421      C1429   1.264       .  A
O1422      C1429   1.259       .  A
C1423      C1504   1.472       .  S
C1423      O1430   1.255       .  A
C1423      O1424   1.269       .  A
C1425      O1427   1.262       .  A
C1425      O1431   1.267       .  A
C1432      C1433   1.432       .  A
C1432      C1437   1.432       .  A
C1433      C1434   1.407       .  A
C1433      H1438   1.076       .  S
C1434      C1435   1.386       .  A
C1435      C1436   1.387       .  A
C1435      H1439   1.083       .  S
C1436      C1437   1.410       .  A
C1437      H1440   1.077       .  S
C1441      C1442   1.397       .  A
C1441      C1446   1.413       .  A
C1442      C1443   1.396       .  A
C1442      H1451   1.084       .  S
C1443      C1444   1.418       .  A
C1443      S1447   1.812       .  S
C1444      C1445   1.403       .  A
C1445      C1446   1.405       .  A
C1445      H1452   1.083       .  S
C1446      S1448   1.800       .  S
S1447      H1450   1.407       .  S
S1448      H1449   1.405       .  S
C1453      C1454   1.407       .  A
C1453      C1458   1.418       .  A
C1454      C1455   1.390       .  A
C1454      H1463   1.083       .  S
C1455      C1456   1.410       .  A
C1455      S1459   1.807       .  S
C1456      C1457   1.404       .  A
C1457      C1458   1.407       .  A
C1457      H1464   1.083       .  S
C1458      S1460   1.798       .  S
S1459      H1462   1.407       .  S
S1460      H1461   1.408       .  S
C1465      C1466   1.406       .  A
C1465      C1470   1.410       .  A
C1466      C1467   1.407       .  A
C1466      H1475   1.083       .  S
C1467      C1468   1.415       .  A
C1467      S1471   1.799       .  S
C1468      C1469   1.407       .  A
C1469      C1470   1.390       .  A
C1469      H1476   1.083       .  S
C1470      S1472   1.807       .  S
S1471      H1474   1.407       .  S
S1472      H1473   1.407       .  S
C1477      C1478   1.399       .  A
C1477      C1482   1.417       .  A
C1478      C1479   1.401       .  A
C1478      H1487   1.083       .  S
C1479      C1480   1.418       .  A
C1479      S1483   1.805       .  S
C1480      C1481   1.399       .  A
C1481      C1482   1.399       .  A
C1481      H1488   1.083       .  S
C1482      S1484   1.805       .  S
S1483      H1486   1.407       .  S
S1484      H1485   1.407       .  S
C1489      C1490   1.409       .  A
C1489      C1494   1.415       .  A
C1490      C1491   1.389       .  A
C1490      H1499   1.083       .  S
C1491      C1492   1.408       .  A
C1491      S1495   1.807       .  S
C1492      C1493   1.406       .  A
C1493      C1494   1.407       .  A
C1493      H1500   1.083       .  S
C1494      S1496   1.797       .  S
S1495      H1498   1.407       .  S
S1496      H1497   1.407       .  S
C1501      C1502   1.397       .  A
C1501      C1506   1.416       .  A
C1502      C1503   1.399       .  A
C1502      H1511   1.083       .  S
C1503      C1504   1.417       .  A
C1503      S1507   1.805       .  S
C1504      C1505   1.398       .  A
C1505      C1506   1.401       .  A
C1505      H1512   1.083       .  S
C1506      S1508   1.805       .  S
S1507      H1510   1.407       .  S
S1508      H1509   1.407       .  S
C1513      C1514   1.396       .  A
C1513      C1518   1.414       .  A
C1514      C1515   1.399       .  A
C1514      H1523   1.084       .  S
C1515      C1516   1.420       .  A
C1515      S1519   1.805       .  S
C1516      C1517   1.399       .  A
C1517      C1518   1.399       .  A
C1517      H1524   1.084       .  S
C1518      S1520   1.804       .  S
S1519      H1522   1.407       .  S
S1520      H1521   1.406       .  S
C1525      C1526   1.403       .  A
C1525      C1530   1.417       .  A
C1526      C1527   1.389       .  A
C1526      H1535   1.084       .  S
C1527      C1528   1.416       .  A
C1527      S1531   1.808       .  S
C1528      C1529   1.405       .  A
C1529      C1530   1.408       .  A
C1529      H1536   1.083       .  S
C1530      S1532   1.799       .  S
S1531      H1534   1.408       .  S
S1532      H1533   1.407       .  S
C1537      C1538   1.398       .  A
C1537      C1542   1.417       .  A
C1538      C1539   1.400       .  A
C1538      H1547   1.083       .  S
C1539      C1540   1.418       .  A
C1539      S1543   1.805       .  S
C1540      C1541   1.398       .  A
C1541      C1542   1.400       .  A
C1541      H1548   1.083       .  S
C1542      S1544   1.805       .  S
S1543      H1546   1.407       .  S
S1544      H1545   1.407       .  S
C1549      C1550   1.406       .  A
C1549      C1554   1.412       .  A
C1550      C1551   1.391       .  A
C1550      H1559   1.084       .  S
C1551      C1552   1.407       .  A
C1551      S1555   1.806       .  S
C1552      C1553   1.406       .  A
C1553      C1554   1.407       .  A
C1553      H1560   1.083       .  S
C1554      S1556   1.800       .  S
S1555      H1558   1.407       .  S
S1556      H1557   1.407       .  S
C1561      C1562   1.398       .  A
C1561      C1566   1.417       .  A
C1562      C1563   1.401       .  A
C1562      H1571   1.084       .  S
C1563      C1564   1.415       .  A
C1563      S1567   1.803       .  S
C1564      C1565   1.395       .  A
C1565      C1566   1.396       .  A
C1565      H1572   1.084       .  S
C1566      S1568   1.805       .  S
S1567      H1570   1.406       .  S
S1568      H1569   1.406       .  S
C1573      C1574   1.406       .  A
C1573      C1578   1.416       .  A
C1574      C1575   1.387       .  A
C1574      H1583   1.084       .  S
C1575      C1576   1.411       .  A
C1575      S1579   1.809       .  S
C1576      C1577   1.405       .  A
C1577      C1578   1.410       .  A
C1577      H1584   1.083       .  S
C1578      S1580   1.798       .  S
S1579      H1582   1.407       .  S
S1580      H1581   1.407       .  S
C1585      C1586   1.407       .  A
C1585      C1590   1.409       .  A
C1586      C1587   1.409       .  A
C1586      H1595   1.083       .  S
C1587      C1588   1.415       .  A
C1587      S1591   1.799       .  S
C1588      C1589   1.408       .  A
C1589      C1590   1.392       .  A
C1589      H1596   1.083       .  S
C1590      S1592   1.807       .  S
S1591      H1594   1.407       .  S
S1592      H1593   1.407       .  S
C1597      C1598   1.408       .  A
C1597      C1602   1.418       .  A
C1598      C1599   1.388       .  A
C1598      H1607   1.084       .  S
C1599      C1600   1.408       .  A
C1599      S1603   1.808       .  S
C1600      C1601   1.403       .  A
C1601      C1602   1.407       .  A
C1601      H1608   1.084       .  S
C1602      S1604   1.797       .  S
S1603      H1606   1.407       .  S
S1604      H1605   1.407       .  S
C1609      C1610   1.406       .  A
C1609      C1614   1.407       .  A
C1610      C1611   1.401       .  A
C1610      H1619   1.084       .  S
C1611      C1612   1.410       .  A
C1611      S1615   1.801       .  S
C1612      C1613   1.408       .  A
C1613      C1614   1.398       .  A
C1613      H1620   1.084       .  S
C1614      S1616   1.807       .  S
S1615      H1618   1.407       .  S
S1616      H1617   1.404       .  S
C1621      C1622   1.406       .  A
C1621      C1626   1.411       .  A
C1622      C1623   1.409       .  A
C1622      H1631   1.083       .  S
C1623      C1624   1.417       .  A
C1623      S1627   1.797       .  S
C1624      C1625   1.408       .  A
C1625      C1626   1.392       .  A
C1625      H1632   1.083       .  S
C1626      S1628   1.807       .  S
S1627      H1630   1.407       .  S
S1628      H1629   1.407       .  S
C1633      C1638   1.435       .  A
C1634      C1635   1.406       .  A
C1634      H1639   1.076       .  S
C1635      C1636   1.385       .  A
C1635      C1692   1.484       .  S
C1636      H1640   1.083       .  S
C1637      C1638   1.408       .  A
C1637      C1709   1.487       .  S
C1638      H1641   1.076       .  S
In1642     O1644   2.303       .  S
In1642     O1645   2.165       .  S
In1642     O1653   2.199       .  S
In1642     O1647   2.277       .  S
In1642     O1649   2.287       .  S
In1642     O1650   2.181       .  S
In1642     O1651   2.199       .  S
In1642     O1654   2.309       .  S
C1643      C2165   1.479       .  S
C1643      O1649   1.267       .  A
C1643      O1651   1.254       .  A
O1644      C1652   1.266       .  A
O1645      C1652   1.261       .  A
C1646      C2153   1.465       .  S
C1646      O1653   1.253       .  A
C1646      O1647   1.266       .  A
C1648      C1664   1.484       .  S
C1648      O1650   1.258       .  A
C1648      O1654   1.265       .  A
C1652      C1714   1.484       .  S
C1655      C1656   1.405       .  A
C1655      C1660   1.413       .  A
C1655      C1696   1.485       .  S
C1656      C1657   1.397       .  A
C1656      H1661   1.078       .  S
C1657      C1658   1.399       .  A
C1658      C1659   1.404       .  A
C1658      H1662   1.080       .  S
C1659      C1660   1.416       .  A
C1659      C1683   1.482       .  S
C1660      H1663   1.083       .  S
C1664      C1665   1.404       .  A
C1664      C1669   1.415       .  A
C1665      C1666   1.397       .  A
C1665      H1670   1.078       .  S
C1666      C1667   1.399       .  A
C1667      C1668   1.405       .  A
C1667      H1671   1.080       .  S
C1668      C1669   1.415       .  A
C1668      C1705   1.486       .  S
C1669      H1672   1.083       .  S
In1673     O1675   2.291       .  S
In1673     O1676   2.196       .  S
In1673     O1684   2.193       .  S
In1673     O1678   2.278       .  S
In1673     O1680   2.280       .  S
In1673     O1681   2.178       .  S
In1673     O1682   2.180       .  S
In1673     O1685   2.300       .  S
C1674      C2141   1.487       .  S
C1674      O1680   1.268       .  A
C1674      O1682   1.256       .  A
O1675      C1683   1.265       .  A
O1676      C1683   1.263       .  A
C1677      C2129   1.475       .  S
C1677      O1684   1.255       .  A
C1677      O1678   1.267       .  A
C1679      C1716   1.486       .  S
C1679      O1681   1.262       .  A
C1679      O1685   1.265       .  A
In1686     O1688   2.314       .  S
In1686     O1689   2.168       .  S
In1686     O1697   2.174       .  S
In1686     O1691   2.292       .  S
In1686     O1693   2.281       .  S
In1686     O1694   2.154       .  S
In1686     O1695   2.181       .  S
In1686     O1698   2.316       .  S
C1687      C2105   1.470       .  S
C1687      O1693   1.270       .  A
C1687      O1695   1.254       .  A
O1688      C1696   1.267       .  A
O1689      C1696   1.257       .  A
C1690      C2117   1.486       .  S
C1690      O1697   1.255       .  A
C1690      O1691   1.271       .  A
C1692      O1694   1.259       .  A
C1692      O1698   1.266       .  A
In1699     O1701   2.309       .  S
In1699     O1702   2.163       .  S
In1699     O1710   2.185       .  S
In1699     O1704   2.282       .  S
In1699     O1706   2.277       .  S
In1699     O1707   2.195       .  S
In1699     O1708   2.195       .  S
In1699     O1711   2.308       .  S
C1700      C2081   1.472       .  S
C1700      O1706   1.269       .  A
C1700      O1708   1.256       .  A
O1701      C1709   1.267       .  A
O1702      C1709   1.262       .  A
C1703      C2093   1.478       .  S
C1703      O1710   1.256       .  A
C1703      O1704   1.269       .  A
C1705      O1707   1.259       .  A
C1705      O1711   1.265       .  A
C1712      C1713   1.432       .  A
C1713      C1714   1.407       .  A
C1713      H1718   1.076       .  S
C1714      C1715   1.387       .  A
C1715      H1719   1.082       .  S
C1716      C1717   1.408       .  A
C1717      H1720   1.076       .  S
C1721      C1726   1.433       .  A
C1721      C1800   1.530       .  S
C1722      C1723   1.407       .  A
C1722      H1727   1.076       .  S
C1723      C1771   1.483       .  S
C1724      C1725   1.384       .  A
C1724      H1728   1.085       .  S
C1725      C1726   1.408       .  A
C1725      C1754   1.481       .  S
C1726      H1729   1.077       .  S
C1730      C1731   1.400       .  A
C1730      C1797   1.481       .  S
C1731      C1732   1.395   1_565  A
C1731      H1736   1.082       .  S
C1733      C1734   1.403       .  A
C1733      H1737   1.080       .  S
C1734      C1735   1.416       .  A
C1734      C1758   1.482       .  S
C1735      H1738   1.083       .  S
C1739      C1740   1.405       .  A
C1739      C1744   1.417       .  A
C1739      C1767   1.484       .  S
C1740      C1741   1.394       .  A
C1740      H1745   1.080       .  S
C1742      C1743   1.403       .  A
C1742      H1746   1.079       .  S
C1743      C1784   1.485       .  S
C1744      H1747   1.082       .  S
In1748     O1750   2.286       .  S
In1748     O1751   2.195       .  S
In1748     O1759   2.192   1_554  S
In1748     O1753   2.277   1_554  S
In1748     O1755   2.285       .  S
In1748     O1756   2.205       .  S
In1748     O1757   2.177       .  S
In1748     O1760   2.294       .  S
C1749      C2072   1.479       .  S
C1749      O1755   1.272       .  A
C1749      O1757   1.255       .  A
O1750      C1758   1.268       .  A
O1751      C1758   1.265       .  A
C1752      C2096   1.467       .  S
C1752      O1759   1.254       .  A
C1752      O1753   1.265       .  A
C1754      O1756   1.262       .  A
C1754      O1760   1.261       .  A
In1761     O1763   2.306       .  S
In1761     O1764   2.179       .  S
In1761     O1772   2.199   1_554  S
In1761     O1766   2.283   1_554  S
In1761     O1768   2.275       .  S
In1761     O1769   2.183       .  S
In1761     O1770   2.195       .  S
In1761     O1773   2.301       .  S
C1762      C2057   1.467       .  S
C1762      O1768   1.267       .  A
C1762      O1770   1.254       .  A
O1763      C1771   1.265       .  A
O1764      C1771   1.260       .  A
C1765      C2168   1.493       .  S
C1765      O1772   1.258       .  A
C1765      O1766   1.269       .  A
C1767      O1769   1.260       .  A
C1767      O1773   1.266       .  A
In1774     O1776   2.307       .  S
In1774     O1777   2.179       .  S
In1774     O1785   2.183   1_554  S
In1774     O1779   2.279   1_554  S
In1774     O1781   2.279       .  S
In1774     O1782   2.179       .  S
In1774     O1783   2.198       .  S
In1774     O1786   2.322       .  S
C1775      C2045   1.470       .  S
C1775      O1781   1.267       .  A
C1775      O1783   1.254       .  A
O1776      C1784   1.267       .  A
O1777      C1784   1.261       .  A
C1778      C2144   1.468       .  S
C1778      O1785   1.255       .  A
C1778      O1779   1.269       .  A
C1780      C1802   1.484       .  S
C1780      O1782   1.257       .  A
C1780      O1786   1.263       .  A
In1787     O1789   2.302       .  S
In1787     O1790   2.189       .  S
In1787     O1798   2.170       .  S
In1787     O1792   2.282       .  S
In1787     O1794   2.284   1_554  S
In1787     O1795   2.172       .  S
In1787     O1796   2.170   1_554  S
In1787     O1799   2.315       .  S
C1788      C2120   1.472       .  S
C1788      O1794   1.271       .  A
C1788      O1796   1.255       .  A
O1789      C1797   1.265       .  A
O1790      C1797   1.262       .  A
C1791      C2033   1.487       .  S
C1791      O1798   1.257       .  A
C1791      O1792   1.272       .  A
C1793      C1804   1.489       .  S
C1793      O1795   1.260       .  A
C1793      O1799   1.267       .  A
C1800      C1805   1.436       .  A
C1801      C1802   1.405       .  A
C1801      H1806   1.075       .  S
C1803      C1804   1.387       .  A
C1803      H1807   1.084       .  S
C1804      C1805   1.410       .  A
C1805      H1808   1.077       .  S
C1809      C1810   1.436       .  A
C1809      C1814   1.436       .  A
C1810      C1811   1.407       .  A
C1810      H1815   1.075       .  S
C1811      C1812   1.386       .  A
C1811      C1855   1.484       .  S
C1812      C1813   1.384       .  A
C1812      H1816   1.085       .  S
C1813      C1814   1.408       .  A
C1813      C1828   1.485       .  S
C1814      H1817   1.075       .  S
In1818     O1820   2.312       .  S
In1818     O1821   2.181       .  S
In1818     O1829   2.198       .  S
In1818     O1823   2.276       .  S
In1818     O1825   2.275       .  S
In1818     O1826   2.183       .  S
In1818     O1827   2.190       .  S
In1818     O1830   2.314       .  S
C1819      C2156   1.476       .  S
C1819      O1825   1.271       .  A
C1819      O1827   1.256       .  A
O1820      C1828   1.264       .  A
O1821      C1828   1.260       .  A
C1822      C2021   1.475       .  S
C1822      O1829   1.256       .  A
C1822      O1823   1.268       .  A
C1824      C1831   1.484       .  S
C1824      O1826   1.259       .  A
C1824      O1830   1.265       .  A
C1831      C1832   1.402       .  A
C1831      C1836   1.415       .  A
C1832      C1833   1.395       .  A
C1832      H1837   1.082       .  S
C1833      C1834   1.396       .  A
C1833      C1842   1.492       .  S
C1834      C1835   1.403       .  A
C1834      H1838   1.080       .  S
C1835      C1836   1.418       .  A
C1835      C1885   1.482       .  S
C1836      H1839   1.082       .  S
C1840      C1841   1.404       .  A
C1840      C1845   1.417       .  A
C1840      C1868   1.481       .  S
C1841      C1842   1.395       .  A
C1841      H1846   1.080       .  S
C1842      C1843   1.396       .  A
C1843      C1844   1.401       .  A
C1843      H1847   1.080       .  S
C1844      C1845   1.414       .  A
C1844      C1859   1.484       .  S
C1845      H1848   1.082       .  S
In1849     O1851   2.308       .  S
In1849     O1852   2.175       .  S
In1849     O1860   2.179       .  S
In1849     O1854   2.283       .  S
In1849     O1856   2.283       .  S
In1849     O1857   2.180       .  S
In1849     O1858   2.186       .  S
In1849     O1861   2.315       .  S
C1850      C2084   1.473       .  S
C1850      O1856   1.271       .  A
C1850      O1858   1.254       .  A
O1851      C1859   1.267       .  A
O1852      C1859   1.260       .  A
C1853      C2012   1.485       .  S
C1853      O1860   1.257       .  A
C1853      O1854   1.273       .  A
C1855      O1857   1.258       .  A
C1855      O1861   1.264       .  A
In1862     O1864   2.303       .  S
In1862     O1865   2.184       .  S
In1862     O1873   2.193       .  S
In1862     O1867   2.278       .  S
In1862     O1869   2.267       .  S
In1862     O1870   2.196       .  S
In1862     O1871   2.199       .  S
In1862     O1874   2.292       .  S
C1863      C2108   1.464       .  S
C1863      O1869   1.265       .  A
C1863      O1871   1.255       .  A
O1864      C1872   1.265       .  A
O1865      C1872   1.261       .  A
C1866      C1997   1.489       .  S
C1866      O1873   1.258       .  A
C1866      O1867   1.268       .  A
C1868      O1870   1.261       .  A
C1868      O1874   1.264       .  A
C1872      C1892   1.484       .  S
In1875     O1877   2.292       .  S
In1875     O1878   2.196       .  S
In1875     O1886   2.191       .  S
In1875     O1880   2.279       .  S
In1875     O1882   2.287       .  S
In1875     O1883   2.193       .  S
In1875     O1884   2.193       .  S
In1875     O1887   2.298       .  S
C1876      C2132   1.488       .  S
C1876      O1882   1.270       .  A
C1876      O1884   1.257       .  A
O1877      C1885   1.264       .  A
O1878      C1885   1.262       .  A
C1879      C1985   1.469       .  S
C1879      O1886   1.254       .  A
C1879      O1880   1.267       .  A
C1881      C1890   1.484       .  S
C1881      O1883   1.262       .  A
C1881      O1887   1.265       .  A
C1888      C1889   1.434       .  A
C1888      C1893   1.434       .  A
C1889      C1890   1.408       .  A
C1889      H1894   1.075       .  S
C1890      C1891   1.387       .  A
C1891      C1892   1.387       .  A
C1891      H1895   1.084       .  S
C1892      C1893   1.408       .  A
C1893      H1896   1.075       .  S
C1897      C1898   1.434       .  A
C1897      C1902   1.435       .  A
C1897      C1976   1.530       .  S
C1898      C1899   1.406       .  A
C1898      H1903   1.076       .  S
C1899      C1900   1.384       .  A
C1899      C1934   1.483       .  S
C1900      C1901   1.384       .  A
C1900      H1904   1.083       .  S
C1901      C1902   1.409       .  A
C1901      C1969   1.487       .  S
C1902      H1905   1.076       .  S
C1906      C1911   1.404       .  A
C1906      C1930   1.485       .  S
C1907      C1908   1.416       .  A
C1907      H1912   1.082       .  S
C1908      C1909   1.404       .  A
C1908      C1947   1.483       .  S
C1909      C1910   1.397       .  A
C1909      H1913   1.080       .  S
C1910      C1917   1.495       .  S
C1911      H1914   1.079       .  S
C1915      C1916   1.403       .  A
C1915      C1920   1.416       .  A
C1915      C1960   1.484       .  S
C1916      C1917   1.398       .  A
C1916      H1921   1.079       .  S
C1918      C1919   1.403       .  A
C1918      H1922   1.081       .  S
C1919      C1973   1.485       .  S
C1920      H1923   1.083       .  S
In1924     O1926   2.314       .  S
In1924     O1927   2.171       .  S
In1924     O1935   2.195       .  S
In1924     O1929   2.274       .  S
In1924     O1931   2.278       .  S
In1924     O1932   2.180       .  S
In1924     O1933   2.198       .  S
In1924     O1936   2.308       .  S
C1925      C2024   1.476       .  S
C1925      O1931   1.269       .  A
C1925      O1933   1.254       .  A
O1926      C1934   1.263       .  A
O1927      C1934   1.258       .  A
C1928      C2060   1.476       .  S
C1928      O1935   1.255       .  A
C1928      O1929   1.270       .  A
C1930      O1932   1.258       .  A
C1930      O1936   1.266       .  A
In1937     O1939   2.295       .  S
In1937     O1940   2.190       .  S
In1937     O1948   2.184       .  S
In1937     O1942   2.281       .  S
In1937     O1944   2.277       .  S
In1937     O1945   2.176       .  S
In1937     O1946   2.183       .  S
In1937     O1949   2.299       .  S
C1938      C2009   1.473       .  S
C1938      O1944   1.268       .  A
C1938      O1946   1.255       .  A
O1939      C1947   1.265       .  A
O1940      C1947   1.261       .  A
C1941      C2069   1.483       .  S
C1941      O1948   1.256       .  A
C1941      O1942   1.268       .  A
C1943      C1978   1.484       .  S
C1943      O1945   1.262       .  A
C1943      O1949   1.265       .  A
In1950     O1952   2.292       .  S
In1950     O1953   2.195       .  S
In1950     O1961   2.188       .  S
In1950     O1955   2.280       .  S
In1950     O1957   2.276       .  S
In1950     O1958   2.185       .  S
In1950     O1959   2.192       .  S
In1950     O1962   2.299       .  S
C1951      C2036   1.471       .  S
C1951      O1957   1.264       .  A
C1951      O1959   1.254       .  A
O1952      C1960   1.266       .  A
O1953      C1960   1.263       .  A
C1954      C2000   1.473       .  S
C1954      O1961   1.255       .  A
C1954      O1955   1.268       .  A
C1956      C1980   1.485       .  S
C1956      O1958   1.261       .  A
C1956      O1962   1.263       .  A
In1963     O1965   2.306       .  S
In1963     O1966   2.196       .  S
In1963     O1974   2.192       .  S
In1963     O1968   2.277       .  S
In1963     O1970   2.283       .  S
In1963     O1971   2.168       .  S
In1963     O1972   2.187       .  S
In1963     O1975   2.307       .  S
C1964      C1988   1.478       .  S
C1964      O1970   1.269       .  A
C1964      O1972   1.255       .  A
O1965      C1973   1.264       .  A
O1966      C1973   1.259       .  A
C1967      C2048   1.472       .  S
C1967      O1974   1.255       .  A
C1967      O1968   1.269       .  A
C1969      O1971   1.262       .  A
C1969      O1975   1.267       .  A
C1976      C1977   1.432       .  A
C1976      C1981   1.432       .  A
C1977      C1978   1.407       .  A
C1977      H1982   1.076       .  S
C1978      C1979   1.386       .  A
C1979      C1980   1.387       .  A
C1979      H1983   1.083       .  S
C1980      C1981   1.410       .  A
C1981      H1984   1.077       .  S
C1985      C1986   1.397       .  A
C1985      C1990   1.413       .  A
C1986      C1987   1.396       .  A
C1986      H1995   1.084       .  S
C1987      C1988   1.418       .  A
C1987      S1991   1.812       .  S
C1988      C1989   1.403       .  A
C1989      C1990   1.405       .  A
C1989      H1996   1.083       .  S
C1990      S1992   1.800       .  S
S1991      H1994   1.407       .  S
S1992      H1993   1.405       .  S
C1997      C1998   1.407       .  A
C1997      C2002   1.418       .  A
C1998      C1999   1.390       .  A
C1998      H2007   1.083       .  S
C1999      C2000   1.410       .  A
C1999      S2003   1.807       .  S
C2000      C2001   1.404       .  A
C2001      C2002   1.407       .  A
C2001      H2008   1.083       .  S
C2002      S2004   1.798       .  S
S2003      H2006   1.407       .  S
S2004      H2005   1.408       .  S
C2009      C2010   1.406       .  A
C2009      C2014   1.410       .  A
C2010      C2011   1.407       .  A
C2010      H2019   1.083       .  S
C2011      C2012   1.415       .  A
C2011      S2015   1.799       .  S
C2012      C2013   1.407       .  A
C2013      C2014   1.390       .  A
C2013      H2020   1.083       .  S
C2014      S2016   1.807       .  S
S2015      H2018   1.407       .  S
S2016      H2017   1.407       .  S
C2021      C2022   1.399       .  A
C2021      C2026   1.417       .  A
C2022      C2023   1.401       .  A
C2022      H2031   1.083       .  S
C2023      C2024   1.418       .  A
C2023      S2027   1.805       .  S
C2024      C2025   1.399       .  A
C2025      C2026   1.399       .  A
C2025      H2032   1.083       .  S
C2026      S2028   1.805       .  S
S2027      H2030   1.407       .  S
S2028      H2029   1.407       .  S
C2033      C2034   1.409       .  A
C2033      C2038   1.415       .  A
C2034      C2035   1.389       .  A
C2034      H2043   1.083       .  S
C2035      C2036   1.408       .  A
C2035      S2039   1.807       .  S
C2036      C2037   1.406       .  A
C2037      C2038   1.407       .  A
C2037      H2044   1.083       .  S
C2038      S2040   1.797       .  S
S2039      H2042   1.407       .  S
S2040      H2041   1.407       .  S
C2045      C2046   1.397       .  A
C2045      C2050   1.416       .  A
C2046      C2047   1.399       .  A
C2046      H2055   1.083       .  S
C2047      C2048   1.417       .  A
C2047      S2051   1.805       .  S
C2048      C2049   1.398       .  A
C2049      C2050   1.401       .  A
C2049      H2056   1.083       .  S
C2050      S2052   1.805       .  S
S2051      H2054   1.407       .  S
S2052      H2053   1.407       .  S
C2057      C2058   1.396       .  A
C2057      C2062   1.414       .  A
C2058      C2059   1.399       .  A
C2058      H2067   1.084       .  S
C2059      C2060   1.420       .  A
C2059      S2063   1.805       .  S
C2060      C2061   1.399       .  A
C2061      C2062   1.399       .  A
C2061      H2068   1.084       .  S
C2062      S2064   1.804       .  S
S2063      H2066   1.407       .  S
S2064      H2065   1.406       .  S
C2069      C2070   1.403       .  A
C2069      C2074   1.417       .  A
C2070      C2071   1.389       .  A
C2070      H2079   1.084       .  S
C2071      C2072   1.416       .  A
C2071      S2075   1.808       .  S
C2072      C2073   1.405       .  A
C2073      C2074   1.408       .  A
C2073      H2080   1.083       .  S
C2074      S2076   1.799       .  S
S2075      H2078   1.408       .  S
S2076      H2077   1.407       .  S
C2081      C2082   1.398       .  A
C2081      C2086   1.417       .  A
C2082      C2083   1.400       .  A
C2082      H2091   1.083       .  S
C2083      C2084   1.418       .  A
C2083      S2087   1.805       .  S
C2084      C2085   1.398       .  A
C2085      C2086   1.400       .  A
C2085      H2092   1.083       .  S
C2086      S2088   1.805       .  S
S2087      H2090   1.407       .  S
S2088      H2089   1.407       .  S
C2093      C2094   1.406       .  A
C2093      C2098   1.412       .  A
C2094      C2095   1.391       .  A
C2094      H2103   1.084       .  S
C2095      C2096   1.407       .  A
C2095      S2099   1.806       .  S
C2096      C2097   1.406       .  A
C2097      C2098   1.407       .  A
C2097      H2104   1.083       .  S
C2098      S2100   1.800       .  S
S2099      H2102   1.407       .  S
S2100      H2101   1.407       .  S
C2105      C2106   1.398       .  A
C2105      C2110   1.417       .  A
C2106      C2107   1.401       .  A
C2106      H2115   1.084       .  S
C2107      C2108   1.415       .  A
C2107      S2111   1.803       .  S
C2108      C2109   1.395       .  A
C2109      C2110   1.396       .  A
C2109      H2116   1.084       .  S
C2110      S2112   1.805       .  S
S2111      H2114   1.406       .  S
S2112      H2113   1.406       .  S
C2117      C2118   1.406       .  A
C2117      C2122   1.416       .  A
C2118      C2119   1.387       .  A
C2118      H2127   1.084       .  S
C2119      C2120   1.411       .  A
C2119      S2123   1.809       .  S
C2120      C2121   1.405       .  A
C2121      C2122   1.410       .  A
C2121      H2128   1.083       .  S
C2122      S2124   1.798       .  S
S2123      H2126   1.407       .  S
S2124      H2125   1.407       .  S
C2129      C2130   1.407       .  A
C2129      C2134   1.409       .  A
C2130      C2131   1.409       .  A
C2130      H2139   1.083       .  S
C2131      C2132   1.415       .  A
C2131      S2135   1.799       .  S
C2132      C2133   1.408       .  A
C2133      C2134   1.392       .  A
C2133      H2140   1.083       .  S
C2134      S2136   1.807       .  S
S2135      H2138   1.407       .  S
S2136      H2137   1.407       .  S
C2141      C2142   1.408       .  A
C2141      C2146   1.418       .  A
C2142      C2143   1.388       .  A
C2142      H2151   1.084       .  S
C2143      C2144   1.408       .  A
C2143      S2147   1.808       .  S
C2144      C2145   1.403       .  A
C2145      C2146   1.407       .  A
C2145      H2152   1.084       .  S
C2146      S2148   1.797       .  S
S2147      H2150   1.407       .  S
S2148      H2149   1.407       .  S
C2153      C2154   1.406       .  A
C2153      C2158   1.407       .  A
C2154      C2155   1.401       .  A
C2154      H2163   1.084       .  S
C2155      C2156   1.410       .  A
C2155      S2159   1.801       .  S
C2156      C2157   1.408       .  A
C2157      C2158   1.398       .  A
C2157      H2164   1.084       .  S
C2158      S2160   1.807       .  S
S2159      H2162   1.407       .  S
S2160      H2161   1.404       .  S
C2165      C2166   1.406       .  A
C2165      C2170   1.411       .  A
C2166      C2167   1.409       .  A
C2166      H2175   1.083       .  S
C2167      C2168   1.417       .  A
C2167      S2171   1.797       .  S
C2168      C2169   1.408       .  A
C2169      C2170   1.392       .  A
C2169      H2176   1.083       .  S
C2170      S2172   1.807       .  S
S2171      H2174   1.407       .  S
S2172      H2173   1.407       .  S
