geometry optimzed in LAMMPS
_audit_creation_date              2020-11-30 
_audit_creation_method            'lammps2cif' 
_symmetry_space_group_name_H-M    'P1' 
_symmetry_Int_Tables_number       1 
_symmetry_cell_setting            triclinic 
loop_ 
_symmetry_equiv_pos_as_xyz 
  x,y,z 
_cell_length_a                    27.88036309 
_cell_length_b                    27.880203978199024 
_cell_length_c                    27.880326913485398 
_cell_angle_alpha                 90.019427356956 
_cell_angle_beta                  89.9940381645462 
_cell_angle_gamma                 90.0080940794106 
loop_ 
_atom_site_label 
_atom_site_type_symbol 
_atom_site_fract_x 
_atom_site_fract_y 
_atom_site_fract_z 
_atom_site_charge 
N1          N  0.01872453  0.26606605  0.26724954     0.00200
C2          C  0.02468875  0.21806928  0.27300092     0.02800
C3          C  0.03567497  0.19571994  0.23031694    -0.20000
C4          C  0.03605402  0.23072652  0.19618685    -0.20300
C5          C  0.02532671  0.27293531  0.21951796     0.02700
H6          H  0.04041807  0.15764317  0.22429924     0.16500
H7          H  0.04116901  0.22564575  0.15802023     0.16600
O8          O  0.00424373  0.41454626  0.35758793    -0.76400
O9          O  0.99957588  0.41643441  0.63314153    -0.78000
O10         O  0.07698538  0.35689269  0.49302604    -0.75000
O11         O  0.92651198  0.35605970  0.49383645    -0.73400
O12         O  0.86650749  0.41237934  0.49220920    -0.75200
O13         O  0.13639622  0.41383043  0.49120794    -0.76100
O14         O  0.99990595  0.35799589  0.57552867    -0.77400
O15         O  0.00405612  0.35681646  0.41586002    -0.77700
Eu16       Eu  0.00158519  0.39803496  0.49539985     2.39200
O17         O  0.95205517  0.44665059  0.54313933    -0.85200
O18         O  0.05046686  0.44666586  0.44700701    -0.88800
C19         C  0.00500068  0.37018018  0.37138088     1.05900
C20         C  0.99912239  0.37191766  0.61985679     1.05700
C21         C  0.12086259  0.36994403  0.49060154     1.05600
C22         C  0.88245672  0.36868176  0.49230212     1.03500
H23         H  0.07022999  0.42659267  0.56433557     0.33200
O24         O  0.05056013  0.44667655  0.54410064    -0.97600
H25         H  0.93323027  0.42538809  0.42552649     0.33300
O26         O  0.95239070  0.44571191  0.44601280    -1.00100
O27         O  0.99875994  0.57570594  0.63216757    -0.73200
O28         O  0.00028341  0.57415819  0.35669107    -0.76900
O29         O  0.13571524  0.49613052  0.57695005    -0.75300
O30         O  0.86561060  0.49078701  0.57566306    -0.78700
O31         O  0.86696169  0.49557234  0.41218260    -0.76500
O32         O  0.13618756  0.49549095  0.41369802    -0.75200
O33         O  0.07512290  0.63362179  0.49557962    -0.76700
O34         O  0.92482248  0.63273830  0.49172539    -0.78600
O35         O  0.13519487  0.57731265  0.49625498    -0.75400
O36         O  0.86542605  0.57573314  0.49172716    -0.78000
O37         O  0.07571467  0.49711029  0.63331683    -0.73800
O38         O  0.07668389  0.49468298  0.35684154    -0.73800
O39         O  0.92706669  0.49462690  0.35594372    -0.73500
O40         O  0.92516562  0.49259672  0.63246674    -0.77000
O41         O  0.99855062  0.63342943  0.57390497    -0.76400
O42         O  0.99965516  0.63243007  0.41444441    -0.74700
Eu43       Eu  0.00059845  0.49573672  0.59158337     2.39800
Eu44       Eu  0.00162824  0.49456054  0.39800262     2.39600
Eu45       Eu  0.09964783  0.49543614  0.49519630     2.38400
Eu46       Eu  0.90232465  0.49423508  0.49414385     2.39900
Eu47       Eu  0.00021797  0.59188902  0.49441192     2.39800
O48         O  0.95189343  0.54277883  0.44593274    -0.89100
O49         O  0.04977237  0.54417401  0.54321354    -0.88000
C50         C  0.99809743  0.62008417  0.61841408     1.06000
C51         C  0.99960574  0.61866699  0.37005627     1.04800
C52         C  0.11977041  0.49697104  0.62065253     1.04200
C53         C  0.88127406  0.49034977  0.61948648     1.06200
C54         C  0.88306898  0.49568033  0.36856097     1.05100
C55         C  0.12055555  0.49497226  0.36990296     1.03900
C56         C  0.11913762  0.62095429  0.49642416     1.04000
C57         C  0.88093964  0.61960549  0.49071406     1.06600
H58         H  0.06979712  0.56414319  0.42606911     0.34000
O59         O  0.05027367  0.54384184  0.44623032    -1.01300
H60         H  0.93070916  0.56362435  0.56295892     0.36000
O61         O  0.95079902  0.54364321  0.54302362    -1.03800
N62         N  0.98471032  0.72321587  0.72359647     0.00200
C63         C  0.97920380  0.71566643  0.77140736     0.02800
C64         C  0.96727127  0.75725509  0.79527014    -0.20000
C65         C  0.96576806  0.79255646  0.76146729    -0.20300
C66         C  0.97684988  0.77103858  0.71838518     0.02700
H67         H  0.96240784  0.76178201  0.83353820     0.16500
H68         H  0.95962992  0.83036171  0.76792073     0.16600
N69         N  0.98425009  0.26750176  0.72326608     0.00200
C70         C  0.97688070  0.22001355  0.71568805     0.02800
C71         C  0.96371963  0.19662343  0.75714840    -0.20000
C72         C  0.96340214  0.23044973  0.79245736    -0.20300
C73         C  0.97637346  0.27301055  0.77099888     0.02700
H74         H  0.95763707  0.15853242  0.76166886     0.16500
H75         H  0.95708403  0.22421260  0.83026559     0.16600
N76         N  0.99020536  0.72353830  0.26613249     0.00200
C77         C  0.98453703  0.71812928  0.21801764     0.02800
C78         C  0.97614886  0.76132224  0.19557749    -0.20000
C79         C  0.97700182  0.79541503  0.23061180    -0.20300
C80         C  0.98588271  0.77158952  0.27295543     0.02700
H81         H  0.97175948  0.76751052  0.15748973     0.16500
H82         H  0.97330788  0.83374673  0.22558294     0.16600
O83         O  0.00225754  0.07565039  0.35993325    -0.76400
O84         O  0.99872714  0.07868373  0.62971130    -0.78000
O85         O  0.92005179  0.13251788  0.49248920    -0.75000
O86         O  0.07980036  0.13280112  0.49269079    -0.73400
O87         O  0.13778779  0.07477593  0.49297201    -0.75200
O88         O  0.86208155  0.07444041  0.49353231    -0.76100
O89         O  0.99997582  0.13453037  0.56925884    -0.77400
O90         O  0.00098478  0.13279574  0.41916227    -0.77700
Eu91       Eu  0.99991337  0.09194802  0.49465933     2.39200
O92         O  0.04827365  0.04426423  0.54469840    -0.85200
O93         O  0.95115278  0.04302609  0.44617694    -0.88800
C94         C  0.00258461  0.11957262  0.37531442     1.05900
C95         C  0.99885266  0.12224112  0.61339139     1.05700
C96         C  0.87563688  0.11887218  0.49233680     1.05600
C97         C  0.12424607  0.11922666  0.49184880     1.03500
H98         H  0.93094299  0.06477033  0.56337396     0.33200
O99         O  0.95121263  0.04413800  0.54431499    -0.97600
H100        H  0.06879355  0.06269843  0.42653717     0.33300
O101        O  0.04845015  0.04287814  0.44634628    -1.00100
O102        O  0.99665587  0.91489382  0.63184590    -0.77400
O103        O  0.99985827  0.91241005  0.36135382    -0.76900
O104        O  0.86148354  0.99662921  0.57148810    -0.75300
O105        O  0.13789369  0.99951418  0.57157507    -0.78700
O106        O  0.13807396  0.99308152  0.42098983    -0.76500
O107        O  0.86121791  0.99575556  0.42077982    -0.75200
O108        O  0.92052628  0.85680254  0.49485838    -0.76700
O109        O  0.07986854  0.85733479  0.49816104    -0.78600
O110        O  0.86230145  0.91459841  0.49488652    -0.75400
O111        O  0.13782494  0.91539272  0.49797920    -0.78000
O112        O  0.91799775  0.99940737  0.63127816    -0.73800
O113        O  0.91788689  0.99656074  0.36107218    -0.73800
O114        O  0.08157918  0.99325853  0.36109746    -0.73500
O115        O  0.08123309  0.00056932  0.63128480    -0.77000
O116        O  0.99714670  0.85779209  0.57249995    -0.76400
O117        O  0.00166083  0.85633331  0.42158479    -0.74700
Eu118      Eu  0.99962780  0.99637745  0.59475580     2.39800
Eu119      Eu  0.99982374  0.99428840  0.39712192     2.39600
Eu120      Eu  0.90287513  0.99466973  0.49589936     2.38400
Eu121      Eu  0.09674444  0.99502399  0.49624722     2.39900
Eu122      Eu  0.00014073  0.89823370  0.49678381     2.39800
O123        O  0.04844906  0.94628004  0.44713384    -0.89100
O124        O  0.95141051  0.94694033  0.54568192    -0.88000
C125        C  0.99574543  0.87097683  0.61638504     1.06000
C126        C  0.00067151  0.86877776  0.37745691     1.04800
C127        C  0.87422736  0.99927637  0.61548413     1.04200
C128        C  0.12501126  0.00166275  0.61552273     1.06200
C129        C  0.12530496  0.99304233  0.37697687     1.05100
C130        C  0.87407415  0.99683337  0.37679510     1.03900
C131        C  0.87601042  0.87018542  0.49421689     1.04000
C132        C  0.12429199  0.87094467  0.49852870     1.06600
H133        H  0.93132718  0.92573414  0.42740307     0.34000
O134        O  0.95144571  0.94599136  0.44701760    -1.01300
H135        H  0.06862669  0.92711886  0.56633705     0.36000
O136        O  0.04854504  0.94692687  0.54623115    -1.03800
N137        N  0.22819508  0.22277113  0.47297609     0.00200
C138        C  0.22152898  0.27026393  0.46421142     0.02800
C139        C  0.26332126  0.29210576  0.44944354    -0.20000
C140        C  0.29782782  0.25743141  0.44962105    -0.20300
C141        C  0.27570004  0.21582179  0.46447396     0.02700
H142        H  0.26873997  0.32988718  0.44225691     0.16500
H143        H  0.33566425  0.26261335  0.44253897     0.16600
N144        N  0.77147227  0.22336614  0.48256168     0.00200
C145        C  0.77770025  0.27146314  0.47803994     0.02800
C146        C  0.73483201  0.29489623  0.47070610    -0.20000
C147        C  0.70012138  0.26044621  0.47097995    -0.20300
C148        C  0.72329775  0.21747221  0.47847218     0.02700
H149        H  0.72931030  0.33317565  0.46718136     0.16500
H150        H  0.66185835  0.26621520  0.46766973     0.16600
N151        N  0.77189810  0.76600406  0.47925447     0.00200
C152        C  0.72400301  0.77233191  0.47281865     0.02800
C153        C  0.70132253  0.73011245  0.46083002    -0.20000
C154        C  0.73593411  0.69563428  0.46016729    -0.20300
C155        C  0.77827277  0.71826469  0.47180192     0.02700
H156        H  0.66326562  0.72465327  0.45531985     0.16500
H157        H  0.73050229  0.65765058  0.45412534     0.16600
N158        N  0.22856722  0.76658103  0.50891422     0.00200
C159        C  0.22265140  0.71840693  0.51221105     0.02800
C160        C  0.26529526  0.69508834  0.52097896    -0.20000
C161        C  0.29965705  0.72976851  0.52293361    -0.20300
C162        C  0.27641037  0.77266768  0.51526683     0.02700
H163        H  0.27094826  0.65678190  0.52397501     0.16500
H164        H  0.33782383  0.72420959  0.52749075     0.16600
N165        N  0.72827057  0.00348585  0.26600716     0.00200
C166        C  0.77636625  0.00846160  0.27203525     0.02800
C167        C  0.79956065  0.01581429  0.22904634    -0.20000
C168        C  0.76498562  0.01511705  0.19447658    -0.20300
C169        C  0.72215130  0.00738195  0.21783754     0.02700
H170        H  0.83777190  0.01983299  0.22337920     0.16500
H171        H  0.77056648  0.01853841  0.15619647     0.16600
O172        O  0.41875438  0.12998690  0.49114915    -0.76400
O173        O  0.41746978  0.86021873  0.49851894    -0.78000
O174        O  0.36182214  0.99452669  0.41447953    -0.75000
O175        O  0.36199810  0.99816532  0.57399950    -0.73400
O176        O  0.41991180  0.99674068  0.63208899    -0.75200
O177        O  0.41980780  0.99407399  0.35644637    -0.76100
O178        O  0.36116816  0.92031035  0.49792275    -0.77400
O179        O  0.36186755  0.07053474  0.49106762    -0.77700
Eu180      Eu  0.40288972  0.99505166  0.49434326     2.39200
O181        O  0.45099376  0.94528585  0.54269480    -0.85200
O182        O  0.45174265  0.04325203  0.44568679    -0.88800
C183        C  0.37489248  0.11447035  0.48980827     1.05900
C184        C  0.37385943  0.87633456  0.49954950     1.05700
C185        C  0.37534287  0.99435436  0.36999158     1.05600
C186        C  0.37553635  0.99847819  0.61843364     1.03500
H187        H  0.43018342  0.92533227  0.42613471     0.33200
O188        O  0.45073329  0.94490765  0.44600032    -0.97600
H189        H  0.43148920  0.06413862  0.56292391     0.33300
O190        O  0.45144403  0.04405490  0.54296087    -1.00100
O191        O  0.58120587  0.85888660  0.49205089    -0.77400
O192        O  0.58201139  0.12889009  0.49218787    -0.76900
O193        O  0.49902496  0.91816332  0.35600948    -0.75300
O194        O  0.49926572  0.91831011  0.63267783    -0.78700
O195        O  0.50189411  0.06910112  0.63232249    -0.76500
O196        O  0.49731550  0.06880929  0.35583004    -0.75200
O197        O  0.63736669  0.99408723  0.41465196    -0.76700
O198        O  0.63743423  0.99659114  0.57422878    -0.78600
O199        O  0.57943374  0.99404565  0.35654780    -0.75400
O200        O  0.57936578  0.99649378  0.63217798    -0.78000
O201        O  0.49728592  0.85858525  0.41276306    -0.73800
O202        O  0.49708586  0.12889891  0.41210057    -0.73800
O203        O  0.50271460  0.12886102  0.57567815    -0.73500
O204        O  0.50029615  0.85862090  0.57598366    -0.77000
O205        O  0.63788385  0.91858381  0.49334330    -0.76400
O206        O  0.63842328  0.06897551  0.49370633    -0.74700
Eu207      Eu  0.49947204  0.89533706  0.49448507     2.39800
Eu208      Eu  0.50018315  0.09289739  0.49386772     2.39600
Eu209      Eu  0.49969955  0.99358690  0.39735342     2.38400
Eu210      Eu  0.49962239  0.99397764  0.59123350     2.39900
Eu211      Eu  0.59659124  0.99386555  0.49443052     2.39800
O212        O  0.54799466  0.04295855  0.54251894    -0.89100
O213        O  0.54816821  0.94453681  0.44591951    -0.88000
C214        C  0.62501750  0.87462101  0.49192138     1.06000
C215        C  0.62573677  0.11300855  0.49240963     1.04800
C216        C  0.49743112  0.87419807  0.36890072     1.04200
C217        C  0.50005300  0.87425923  0.61980720     1.06200
C218        C  0.50327128  0.11301700  0.61941634     1.05100
C219        C  0.49589108  0.11286833  0.36843906     1.03900
C220        C  0.62383671  0.99431992  0.37020898     1.04000
C221        C  0.62381257  0.99756118  0.61865284     1.06600
H222        H  0.56849981  0.06251838  0.42497333     0.34000
O223        O  0.54846801  0.04301057  0.44540919    -1.01300
H224        H  0.56876361  0.92496338  0.56338631     0.36000
O225        O  0.54845685  0.94448090  0.54322337    -1.03800
N226        N  0.27238398  0.01823607  0.72220271     0.00200
C227        C  0.27985370  0.02652219  0.76957824     0.02800
C228        C  0.23864514  0.04187133  0.79211960    -0.20000
C229        C  0.20368437  0.04259597  0.75787071    -0.20300
C230        C  0.22502566  0.02766193  0.71586991     0.02700
H231        H  0.23385862  0.04880728  0.83003408     0.16500
H232        H  0.16603048  0.05019042  0.76360582     0.16600
N233        N  0.72717826  0.01651986  0.72265731     0.00200
C234        C  0.77442237  0.02625957  0.71581083     0.02800
C235        C  0.79603778  0.04179066  0.75745809    -0.20000
C236        C  0.76144393  0.04102692  0.79206358    -0.20300
C237        C  0.72014741  0.02504943  0.77011620     0.02700
H238        H  0.83369934  0.04965315  0.76278662     0.16500
H239        H  0.76660540  0.04819723  0.82988819     0.16600
N240        N  0.27040461  0.99770195  0.26540004     0.00200
C241        C  0.27569548  0.99952336  0.21696930     0.02800
C242        C  0.23230258  0.00389977  0.19379474    -0.20000
C243        C  0.19814212  0.00454261  0.22868596    -0.20300
C244        C  0.22216802  0.00053639  0.27164962     0.02700
H245        H  0.22617026  0.00528093  0.15546667     0.16500
H246        H  0.15972406  0.00650497  0.22333479     0.16600
O247        O  0.63366298  0.99394479  0.07664199    -0.76400
O248        O  0.36389435  0.98947506  0.07460282    -0.78000
O249        O  0.49645523  0.07061934  0.13145870    -0.75000
O250        O  0.49678881  0.91121119  0.13129169    -0.73400
O251        O  0.49694155  0.85328707  0.07320505    -0.75200
O252        O  0.49653537  0.12879450  0.07361543    -0.76100
O253        O  0.42341235  0.99006232  0.13146777    -0.77400
O254        O  0.57346376  0.99265857  0.13275495    -0.77700
Eu255      Eu  0.49860646  0.99089464  0.09046011     2.39200
O256        O  0.44975006  0.94220732  0.04174974    -0.85200
O257        O  0.54776237  0.04005640  0.04272532    -0.88800
C258        C  0.61756741  0.99402800  0.12029388     1.05900
C259        C  0.37951271  0.98976843  0.11846321     1.05700
C260        C  0.49568914  0.11508192  0.11798105     1.05600
C261        C  0.49611963  0.86679891  0.11769311     1.03500
H262        H  0.42967163  0.05910032  0.06191491     0.33200
O263        O  0.44957468  0.03918341  0.04174807    -0.97600
H264        H  0.56808428  0.92263863  0.06317405     0.33300
O265        O  0.54866235  0.94271384  0.04269188    -1.00100
O266        O  0.36497834  0.99617692  0.91111767    -0.77400
O267        O  0.63538514  0.99511480  0.91321658    -0.76900
O268        O  0.42309627  0.12882988  0.99296739    -0.75300
O269        O  0.42476949  0.85252802  0.99040185    -0.78700
O270        O  0.57509137  0.85353346  0.99445101    -0.76500
O271        O  0.57382237  0.13044680  0.99661101    -0.75200
O272        O  0.50157237  0.07143286  0.85592662    -0.76700
O273        O  0.50235993  0.91176165  0.85564913    -0.78600
O274        O  0.50051534  0.12929819  0.91410114    -0.75400
O275        O  0.50266345  0.85376312  0.91366806    -0.78000
O276        O  0.36358839  0.07195517  0.99445070    -0.73800
O277        O  0.63383705  0.07413729  0.99675273    -0.73800
O278        O  0.63460385  0.91045976  0.99476218    -0.73500
O279        O  0.36458967  0.90868112  0.98889035    -0.77000
O280        O  0.42507613  0.99487919  0.85485916    -0.76400
O281        O  0.57614297  0.99349215  0.85606545    -0.74700
Eu282      Eu  0.40052912  0.99059233  0.99283775     2.39800
Eu283      Eu  0.59811331  0.99207906  0.99462848     2.39600
Eu284      Eu  0.49877885  0.08822605  0.99380286     2.38400
Eu285      Eu  0.49974902  0.89448699  0.99346391     2.39900
Eu286      Eu  0.50033135  0.99149671  0.89664669     2.39800
O287        O  0.54940618  0.94320866  0.94548860    -0.89100
O288        O  0.45031307  0.03948737  0.94487144    -0.88000
C289        C  0.38103725  0.99732257  0.86748680     1.06000
C290        C  0.62000210  0.99560973  0.86927774     1.04800
C291        C  0.37917771  0.11578811  0.99424875     1.04200
C292        C  0.38071519  0.86502784  0.98816794     1.06200
C293        C  0.61899748  0.86661588  0.99491196     1.05100
C294        C  0.61793348  0.11787115  0.99720018     1.03900
C295        C  0.50168267  0.11585339  0.86962506     1.04000
C296        C  0.50319070  0.86732901  0.86923861     1.06600
H297        H  0.56832981  0.06086574  0.92605789     0.34000
O298        O  0.54866099  0.04027072  0.94576038    -1.01300
H299        H  0.43153394  0.92266156  0.92341427     0.36000
O300        O  0.45073192  0.94259748  0.94425033    -1.03800
N301        N  0.47585349  0.21873963  0.22115091     0.00200
C302        C  0.46596161  0.21162356  0.26827002     0.02800
C303        C  0.44827144  0.25257474  0.28952909    -0.20000
C304        C  0.44783349  0.28703820  0.25477254    -0.20300
C305        C  0.46529110  0.26568693  0.21375520     0.02700
H306        H  0.43990585  0.25772408  0.32710700     0.16500
H307        H  0.43915403  0.32456407  0.25976241     0.16600
N308        N  0.48386351  0.76366312  0.22314138     0.00200
C309        C  0.47777783  0.71562396  0.21753825     0.02800
C310        C  0.46760618  0.69332228  0.26042727    -0.20000
C311        C  0.46782773  0.72835701  0.29454270    -0.20300
C312        C  0.47814689  0.77058615  0.27107126     0.02700
H313        H  0.46285656  0.65526171  0.26652882     0.16500
H314        H  0.46325172  0.72329826  0.33277806     0.16600
N315        N  0.51030681  0.76259018  0.76493631     0.00200
C316        C  0.51455993  0.71438251  0.77088131     0.02800
C317        C  0.51935143  0.69095422  0.72764261    -0.20000
C318        C  0.51775162  0.72546047  0.69303312    -0.20300
C319        C  0.51204176  0.76852077  0.71658534     0.02700
H320        H  0.52232577  0.65265600  0.72189911     0.16500
H321        H  0.51937700  0.71972165  0.65465540     0.16600
N322        N  0.51627457  0.22065681  0.76627922     0.00200
C323        C  0.52255310  0.21493448  0.71834680     0.02800
C324        C  0.53370470  0.25753475  0.69598135    -0.20000
C325        C  0.53400626  0.29166745  0.73095217    -0.20300
C326        C  0.52303968  0.26836894  0.77310121     0.02700
H327        H  0.53890729  0.26343058  0.65794722     0.16500
H328        H  0.53951142  0.32978497  0.72593385     0.16600
O329        O  0.00508266  0.35987173  0.07834621    -0.76400
O330        O  0.00033561  0.62984392  0.07542008    -0.78000
O331        O  0.08186120  0.49470944  0.13304164    -0.75000
O332        O  0.92210517  0.49621992  0.13263584    -0.73400
O333        O  0.86426555  0.49486366  0.07449693    -0.75200
O334        O  0.14010336  0.49439077  0.07523681    -0.76100
O335        O  0.00042068  0.57062372  0.13256860    -0.77400
O336        O  0.00385316  0.42021503  0.13435666    -0.77700
Eu337      Eu  0.00214660  0.49491659  0.09199494     2.39200
O338        O  0.95373065  0.54300907  0.04269912    -0.85200
O339        O  0.05079295  0.44563927  0.04395829    -0.88800
C340        C  0.00544785  0.37611486  0.12193936     1.05900
C341        C  0.99954882  0.61449101  0.11934204     1.05700
C342        C  0.12635691  0.49436016  0.11963522     1.05600
C343        C  0.87767530  0.49614658  0.11895767     1.03500
H344        H  0.07111415  0.56404997  0.06337913     0.33200
O345        O  0.05102729  0.54404095  0.04346343    -0.97600
H346        H  0.93367603  0.42485861  0.06496740     0.33300
O347        O  0.95376329  0.44434214  0.04454888    -1.00100
O348        O  0.00020189  0.62817795  0.91210030    -0.77400
O349        O  0.00032906  0.35801264  0.91480720    -0.76900
O350        O  0.14038305  0.56969206  0.99223859    -0.75300
O351        O  0.86387347  0.56780813  0.99525710    -0.78700
O352        O  0.86437157  0.41720564  0.99480122    -0.76500
O353        O  0.14117148  0.41910055  0.99750107    -0.75200
O354        O  0.08278456  0.49416917  0.85741049    -0.76700
O355        O  0.92337860  0.49058447  0.85725802    -0.78600
O356        O  0.14067985  0.49451257  0.91550246    -0.75400
O357        O  0.86512738  0.49051303  0.91504399    -0.78000
O358        O  0.08356398  0.62921909  0.99000281    -0.73800
O359        O  0.08476442  0.35912517  0.99837913    -0.73800
O360        O  0.92135505  0.35785004  0.99568813    -0.73500
O361        O  0.92009541  0.62797011  0.99545792    -0.77000
O362        O  0.00189407  0.56794482  0.85602015    -0.76400
O363        O  0.00139311  0.41741090  0.85782635    -0.74700
Eu364      Eu  0.00205775  0.59252089  0.99410749     2.39800
Eu365      Eu  0.00289253  0.39496563  0.99619565     2.39600
Eu366      Eu  0.09949724  0.49420667  0.99528799     2.38400
Eu367      Eu  0.90557382  0.49283534  0.99499195     2.39900
Eu368      Eu  0.00304333  0.49299868  0.89832905     2.39800
O369        O  0.95481983  0.44408281  0.94722222    -0.89100
O370        O  0.05096082  0.54274151  0.94644009    -0.88000
C371        C  0.00036068  0.61206960  0.86844225     1.06000
C372        C  0.99971151  0.37356071  0.87096457     1.04800
C373        C  0.12737922  0.61355755  0.98949163     1.04200
C374        C  0.87646129  0.61185835  0.99584123     1.06200
C375        C  0.87743018  0.37324031  0.99490618     1.05100
C376        C  0.12847261  0.37507740  0.99896068     1.03900
C377        C  0.12720882  0.49471032  0.87101186     1.04000
C378        C  0.87889177  0.48972060  0.87066842     1.06600
H379        H  0.07199277  0.42412439  0.92695109     0.34000
O380        O  0.05174251  0.44389279  0.94694109    -1.01300
H381        H  0.93320987  0.56131750  0.92566803     0.36000
O382        O  0.95365764  0.54217681  0.94603666    -1.03800
N383        N  0.77329991  0.50748663  0.22333152     0.00200
C384        C  0.77997780  0.51327903  0.27116927     0.02800
C385        C  0.73768260  0.52291542  0.29477778    -0.20000
C386        C  0.70270336  0.52268560  0.26070697    -0.20300
C387        C  0.72522982  0.51291797  0.21784077     0.02700
H388        H  0.73259935  0.52735546  0.33302927     0.16500
H389        H  0.66457534  0.52690331  0.26679091     0.16600
N390        N  0.23091002  0.49152119  0.22438611     0.00200
C391        C  0.27915598  0.48977720  0.21838495     0.02800
C392        C  0.30321147  0.48832610  0.26149059    -0.20000
C393        C  0.26892896  0.48921358  0.29625245    -0.20300
C394        C  0.22553527  0.49119567  0.27275903     0.02700
H395        H  0.34164135  0.48702790  0.26695156     0.16500
H396        H  0.27490135  0.48873000  0.33462616     0.16600
N397        N  0.23141499  0.50070559  0.76587587     0.00200
C398        C  0.27981479  0.50295505  0.77119488     0.02800
C399        C  0.30297024  0.50773489  0.72783209    -0.20000
C400        C  0.26807939  0.50825885  0.69366457    -0.20300
C401        C  0.22513005  0.50380670  0.71765241     0.02700
H402        H  0.34128303  0.50958507  0.72172529     0.16500
H403        H  0.27341877  0.51062956  0.65526755     0.16600
N404        N  0.77429748  0.47551569  0.76708868     0.00200
C405        C  0.77982975  0.46873738  0.71914838     0.02800
C406        C  0.73710468  0.45708822  0.69724454    -0.20000
C407        C  0.70316668  0.45708774  0.73244094    -0.20300
C408        C  0.72662278  0.46873120  0.77432871     0.02700
H409        H  0.73093436  0.45155082  0.65930010     0.16500
H410        H  0.66502585  0.45151375  0.72767636     0.16600
N411        N  0.27306225  0.26364989  0.01037093     0.00200
C412        C  0.22565362  0.27134139  0.01842637     0.02800
C413        C  0.20196848  0.22952124  0.02987220    -0.20000
C414        C  0.23545444  0.19393024  0.02841315    -0.20300
C415        C  0.27813689  0.21554756  0.01611074     0.02700
H416        H  0.16389094  0.22507307  0.03610854     0.16500
H417        H  0.22896149  0.15596823  0.03342333     0.16600
O418        O  0.49697077  0.40958902  0.13073372    -0.76400
O419        O  0.50528062  0.40954141  0.86084072    -0.78000
O420        O  0.42306169  0.35287164  0.99646566    -0.75000
O421        O  0.58261862  0.35369702  0.99637966    -0.73400
O422        O  0.64042981  0.41192409  0.99662400    -0.75200
O423        O  0.36498796  0.41077848  0.99605065    -0.76100
O424        O  0.50459797  0.35293188  0.92062299    -0.77400
O425        O  0.49920344  0.35288693  0.07108962    -0.77700
Eu426      Eu  0.50271301  0.39419594  0.99584057     2.39200
O427        O  0.55119273  0.44304414  0.94719294    -0.85200
O428        O  0.45377282  0.44264534  0.04420487    -0.88800
C429        C  0.49633804  0.36578559  0.11498872     1.05900
C430        C  0.50572696  0.36580753  0.87666863     1.05700
C431        C  0.37859051  0.36636947  0.99681452     1.05600
C432        C  0.62700033  0.36744108  0.99644793     1.03500
H433        H  0.43441516  0.42173212  0.92583534     0.33200
O434        O  0.45438688  0.44200071  0.94560035    -0.97600
H435        H  0.57075769  0.42236711  0.06574370     0.33300
O436        O  0.55086669  0.44249197  0.04576335    -1.00100
O437        O  0.50490847  0.57305462  0.86053865    -0.77400
O438        O  0.49848554  0.57289805  0.13075925    -0.76900
O439        O  0.36458421  0.49107833  0.91938875    -0.75300
O440        O  0.64143801  0.48987553  0.92169130    -0.78700
O441        O  0.63972081  0.49288859  0.07198574    -0.76500
O442        O  0.36333838  0.49062073  0.06900304    -0.75200
O443        O  0.42243507  0.62837066  0.99134767    -0.76700
O444        O  0.58188205  0.62939441  0.99738465    -0.78600
O445        O  0.36465073  0.57011201  0.99133752    -0.75400
O446        O  0.64001473  0.57152580  0.99732923    -0.78000
O447        O  0.42170338  0.49293472  0.86015809    -0.73800
O448        O  0.41929053  0.49069724  0.12936665    -0.73800
O449        O  0.58261936  0.49326961  0.13130757    -0.73500
O450        O  0.58536743  0.48896362  0.86143214    -0.77000
O451        O  0.50401149  0.62973739  0.92024449    -0.76400
O452        O  0.49963995  0.62947840  0.07098667    -0.74700
Eu453      Eu  0.50333176  0.49125285  0.89690088     2.39800
Eu454      Eu  0.50131044  0.49126112  0.09428860     2.39600
Eu455      Eu  0.40572187  0.49060245  0.99448568     2.38400
Eu456      Eu  0.59922844  0.49151008  0.99658532     2.39900
Eu457      Eu  0.50232108  0.58814469  0.99553240     2.39800
O458        O  0.55030616  0.53993200  0.04539094    -0.89100
O459        O  0.45441673  0.53946730  0.94603316    -0.88000
C460        C  0.50506353  0.61688723  0.87623045     1.06000
C461        C  0.49798457  0.61667145  0.11498806     1.04800
C462        C  0.37778227  0.49262654  0.87557044     1.04200
C463        C  0.62899358  0.48852464  0.87758896     1.06200
C464        C  0.62648157  0.49388925  0.11580373     1.05100
C465        C  0.37574966  0.49052369  0.11308479     1.03900
C466        C  0.37809956  0.61456061  0.99008606     1.04000
C467        C  0.62635946  0.61596671  0.99765999     1.06600
H468        H  0.43235992  0.55980306  0.06321802     0.34000
O469        O  0.45311874  0.53967057  0.04414780    -1.01300
H470        H  0.57207011  0.56001143  0.92736924     0.36000
O471        O  0.55152354  0.53994580  0.94672977    -1.03800
N472        N  0.73022755  0.72147645  0.00233714     0.00200
C473        C  0.72410108  0.76974982  0.00470357     0.02800
C474        C  0.76709609  0.79366638  0.00910794    -0.20000
C475        C  0.80186481  0.75937842  0.00924646    -0.20300
C476        C  0.77855312  0.71604642  0.00495430     0.02700
H477        H  0.77255934  0.83208240  0.01083995     0.16500
H478        H  0.84019358  0.76537291  0.01112397     0.16600
N479        N  0.27524282  0.71778830  0.96724750     0.00200
C480        C  0.28316480  0.76440229  0.95577158     0.02800
C481        C  0.24270529  0.78555060  0.93687450    -0.20000
C482        C  0.20772274  0.75130435  0.93737898    -0.20300
C483        C  0.22830888  0.71068218  0.95652775     0.02700
H484        H  0.23808173  0.82293814  0.92744775     0.16500
H485        H  0.17031878  0.75655207  0.92834645     0.16600
N486        N  0.73107963  0.26244085  0.99250077     0.00200
C487        C  0.77944068  0.26768503  0.98889200     0.02800
C488        C  0.80228096  0.22406721  0.98478652    -0.20000
C489        C  0.76723591  0.18996397  0.98611885    -0.20300
C490        C  0.72444883  0.21416589  0.99100577     0.02700
H491        H  0.84050009  0.21776555  0.98198624     0.16500
H492        H  0.77237994  0.15150668  0.98440519     0.16600
C493        C  0.66437753  0.33025969  0.99610142    -0.09600
C494        C  0.69534266  0.29903985  0.99498123    -0.11100
C495        C  0.34084027  0.65157853  0.98591658    -0.09600
C496        C  0.31018494  0.68238611  0.97928895    -0.11100
C497        C  0.69434334  0.68493754  0.99965432    -0.09600
C498        C  0.66353756  0.65348285  0.99839912    -0.11100
C499        C  0.34123455  0.32913951  0.99892001    -0.09600
C500        C  0.30974543  0.29863238  0.00284239    -0.11100
C501        C  0.69992102  0.47871744  0.81671155    -0.09600
C502        C  0.66775832  0.48492320  0.84457767    -0.11100
C503        C  0.30690704  0.49805604  0.81414035    -0.09600
C504        C  0.33940354  0.49480509  0.84207877    -0.11100
C505        C  0.33702788  0.49036650  0.14603252    -0.09600
C506        C  0.30505599  0.49018584  0.17460780    -0.11100
C507        C  0.69751520  0.50339661  0.17619875    -0.09600
C508        C  0.66478831  0.49732266  0.14910168    -0.11100
C509        C  0.80537679  0.67294292  0.00060003    -0.09600
C510        C  0.83775525  0.64489850  0.99765387    -0.11100
C511        C  0.83900596  0.33943466  0.99368125    -0.09600
C512        C  0.80676135  0.31091086  0.99172431    -0.11100
C513        C  0.19875467  0.67222348  0.97273762    -0.09600
C514        C  0.16580571  0.64654212  0.98305718    -0.11100
C515        C  0.19912324  0.31394147  0.00898842    -0.09600
C516        C  0.16705830  0.34191480  0.00282091    -0.11100
C517        C  0.84175172  0.48708353  0.83328379    -0.09600
C518        C  0.81063824  0.48300492  0.80242586    -0.11100
C519        C  0.16455572  0.49585222  0.83366277    -0.09600
C520        C  0.19552297  0.49758942  0.80238160    -0.11100
C521        C  0.16351094  0.49376869  0.15710221    -0.09600
C522        C  0.19455342  0.49289109  0.18828986    -0.11100
C523        C  0.84017647  0.49807312  0.15610147    -0.09600
C524        C  0.80902731  0.50128894  0.18707090    -0.11100
C525        C  0.51413952  0.29514714  0.81553701    -0.09600
C526        C  0.50876223  0.32734162  0.84343608    -0.11100
C527        C  0.50740576  0.65543625  0.84273201    -0.09600
C528        C  0.51046661  0.68759241  0.81426745    -0.11100
C529        C  0.49365056  0.65521084  0.14824875    -0.09600
C530        C  0.48722439  0.68769072  0.17575503    -0.11100
C531        C  0.48984476  0.32729537  0.14796323    -0.09600
C532        C  0.48009151  0.29457641  0.17419247    -0.11100
C533        C  0.65143565  0.15655104  0.99738503    -0.09600
C534        C  0.68050615  0.18827176  0.99537442    -0.11100
C535        C  0.32215526  0.79347670  0.97159638    -0.09600
C536        C  0.34803880  0.82630602  0.98181473    -0.11100
C537        C  0.65243712  0.82822597  0.99670047    -0.09600
C538        C  0.68070329  0.79604546  0.99989607    -0.11100
C539        C  0.34586917  0.15424265  0.99776153    -0.09600
C540        C  0.31894085  0.18703499  0.00470426    -0.11100
C541        C  0.50429016  0.15327783  0.83250121    -0.09600
C542        C  0.50860853  0.18447164  0.80174995    -0.11100
C543        C  0.50485861  0.82999019  0.83200386    -0.09600
C544        C  0.50682716  0.79877387  0.80104596    -0.11100
C545        C  0.49385454  0.82959517  0.15510219    -0.09600
C546        C  0.49038361  0.79903804  0.18661736    -0.11100
C547        C  0.49243760  0.15224880  0.15521652    -0.09600
C548        C  0.48668612  0.18322719  0.18589988    -0.11100
C549        C  0.31857327  0.99433150  0.18982162    -0.09600
C550        C  0.34621542  0.99105889  0.15706175    -0.11100
C551        C  0.65338083  0.00139419  0.83099886    -0.09600
C552        C  0.68003220  0.01069253  0.79847434    -0.11100
C553        C  0.32072002  0.01286523  0.79710202    -0.09600
C554        C  0.34803562  0.00368343  0.82904200    -0.11100
C555        C  0.49038752  0.14579557  0.32980392    -0.09600
C556        C  0.48095349  0.17213568  0.29711337    -0.11100
C557        C  0.49390113  0.84081393  0.33031511    -0.09600
C558        C  0.48780890  0.81302584  0.29797306    -0.11100
C559        C  0.50690018  0.14609215  0.65793291    -0.09600
C560        C  0.51291162  0.17330304  0.69059462    -0.11100
C561        C  0.50581841  0.81181559  0.69004347    -0.09600
C562        C  0.50198827  0.84058239  0.65824148    -0.11100
C563        C  0.30686204  0.99543175  0.30141691    -0.09600
C564        C  0.33799142  0.99455745  0.33258947    -0.11100
C565        C  0.66100457  0.00100899  0.65596714    -0.09600
C566        C  0.69177462  0.00650039  0.68697625    -0.11100
C567        C  0.33832470  0.00218899  0.65556641    -0.09600
C568        C  0.30752217  0.00798327  0.68640925    -0.11100
C569        C  0.67908476  0.00073637  0.19113587    -0.09600
C570        C  0.65072579  0.99661392  0.15905075    -0.11100
C571        C  0.66115435  0.99571819  0.33302328    -0.09600
C572        C  0.69225078  0.99843757  0.30204786    -0.11100
C573        C  0.30320934  0.81542652  0.50867537    -0.09600
C574        C  0.33534788  0.84338383  0.50364740    -0.11100
C575        C  0.69639090  0.81412259  0.48284168    -0.09600
C576        C  0.66365105  0.84140597  0.48870147    -0.11100
C577        C  0.69641470  0.17459445  0.48537035    -0.09600
C578        C  0.66432957  0.14630575  0.48978864    -0.11100
C579        C  0.30389219  0.17494822  0.47700601    -0.09600
C580        C  0.33648135  0.14789080  0.48488336    -0.11100
C581        C  0.83564205  0.00471388  0.64859449    -0.09600
C582        C  0.80304168  0.01324215  0.67541587    -0.11100
C583        C  0.19622690  0.01534745  0.67542205    -0.09600
C584        C  0.16350088  0.00725851  0.64865223    -0.11100
C585        C  0.16389268  0.99388359  0.34367768    -0.09600
C586        C  0.19599208  0.99646198  0.31523099    -0.11100
C587        C  0.83552091  0.99918247  0.34337430    -0.09600
C588        C  0.80328951  0.00277831  0.31510152    -0.11100
C589        C  0.16158600  0.83369184  0.50031105    -0.09600
C590        C  0.19259271  0.80262364  0.50331650    -0.11100
C591        C  0.83879400  0.83276633  0.49157278    -0.09600
C592        C  0.80777051  0.80179724  0.48716767    -0.11100
C593        C  0.80738769  0.18720821  0.48759487    -0.09600
C594        C  0.83835375  0.15609751  0.49038998    -0.11100
C595        C  0.19249163  0.18730655  0.48276897    -0.09600
C596        C  0.16152937  0.15647393  0.48828781    -0.11100
C597        C  0.99650154  0.64811168  0.15766363    -0.09600
C598        C  0.99173994  0.67584614  0.19022273    -0.11100
C599        C  0.99878271  0.82998666  0.34429071    -0.09600
C600        C  0.99405096  0.79793482  0.31598050    -0.11100
C601        C  0.99511763  0.34032376  0.83259164    -0.09600
C602        C  0.98771521  0.31365237  0.79970647    -0.11100
C603        C  0.99545671  0.16110258  0.64621141    -0.09600
C604        C  0.98844404  0.19329837  0.67378898    -0.11100
C605        C  0.99015126  0.67321345  0.79772087    -0.09600
C606        C  0.99678064  0.64515857  0.82967116    -0.11100
C607        C  0.99169791  0.83257446  0.64982991    -0.09600
C608        C  0.98577322  0.79972699  0.67700638    -0.11100
C609        C  0.15219922  0.65954033  0.49879251    -0.09600
C610        C  0.18013319  0.69173143  0.50371032    -0.11100
C611        C  0.84919078  0.33007951  0.48924724    -0.09600
C612        C  0.82077680  0.29811200  0.48470374    -0.11100
C613        C  0.18090691  0.29876826  0.47683193    -0.09600
C614        C  0.15412913  0.33149672  0.48506805    -0.11100
C615        C  0.84753300  0.65798573  0.48706534    -0.09600
C616        C  0.82014401  0.69060951  0.48120550    -0.11100
C617        C  0.15392760  0.49448513  0.33154614    -0.09600
C618        C  0.18218792  0.49328287  0.29930389    -0.11100
C619        C  0.85014767  0.49856811  0.32993569    -0.09600
C620        C  0.82243701  0.50423726  0.29770203    -0.11100
C621        C  0.15304353  0.49811030  0.65929562    -0.09600
C622        C  0.18150485  0.50022171  0.69143577    -0.11100
C623        C  0.84809559  0.48570494  0.65800221    -0.09600
C624        C  0.82109940  0.47898139  0.69081790    -0.11100
C625        C  0.99829113  0.65583689  0.33261462    -0.09600
C626        C  0.99560715  0.68704568  0.30169612    -0.11100
C627        C  0.99250649  0.30385243  0.68815811    -0.09600
C628        C  0.99680371  0.33492007  0.65732845    -0.11100
C629        C  0.99202899  0.68817664  0.68692077    -0.09600
C630        C  0.99588923  0.65748912  0.65559432    -0.11100
C631        C  0.00931374  0.34318303  0.16067395    -0.09600
C632        C  0.01565014  0.31529053  0.19274116    -0.11100
C633        C  0.00696489  0.15782630  0.34183979    -0.09600
C634        C  0.01404474  0.19023078  0.31447329    -0.11100
C635        C  0.01152805  0.30167218  0.30338338    -0.09600
C636        C  0.00759867  0.33271936  0.33432367    -0.11100
loop_ 
_geom_bond_atom_site_label_1 
_geom_bond_atom_site_label_2 
_geom_bond_distance 
_geom_bond_site_symmetry_2 
_ccdc_geom_bond_type 
N1            C5   1.357       .  A
N1            C2   1.358       .  A
N1          C635   1.428       .  S
C2            C3   1.378       .  A
C2          C634   1.424       .  S
C3            C4   1.363       .  A
C3            H6   1.083       .  S
C4            C5   1.377       .  A
C4            H7   1.083       .  S
C5          C632   1.423       .  S
O8           C19   1.296       .  A
O8          Eu44   2.500       .  S
O9           C20   1.295       .  A
O9          Eu43   2.497   1_655  S
O10          C21   1.278       .  A
O10         Eu16   2.396       .  S
O11          C22   1.278       .  A
O11         Eu16   2.398   1_655  S
O12          C22   1.297       .  A
O12         Eu46   2.492       .  S
O13          C21   1.298       .  A
O13         Eu45   2.498       .  S
O14          C20   1.295       .  A
O14         Eu16   2.498   1_655  S
O15          C19   1.295       .  A
O15         Eu16   2.498       .  S
Eu16         O26   2.355   1_455  S
Eu16         O18   2.349       .  S
Eu16         O17   2.348   1_455  S
Eu16         O24   2.355       .  S
O17         Eu46   2.356       .  S
O17         Eu43   2.351   1_655  S
O18         Eu44   2.346       .  S
O18         Eu45   2.352       .  S
C19         C636   1.471       .  S
C20         C628   1.470       .  S
C21         C614   1.426       .  S
C22         C611   1.423       .  S
H23          O24   0.966       .  S
O24         Eu45   2.362       .  S
O24         Eu43   2.359       .  S
H25          O26   0.966       .  S
O26         Eu44   2.352   1_655  S
O26         Eu46   2.362       .  S
O27          C50   1.296       .  A
O27         Eu43   2.500   1_655  S
O28          C51   1.296   1_455  A
O28         Eu44   2.501       .  S
O29          C52   1.297       .  A
O29         Eu45   2.491       .  S
O30          C53   1.298       .  A
O30         Eu46   2.494       .  S
O31          C54   1.296       .  A
O31         Eu46   2.489       .  S
O32          C55   1.297       .  A
O32         Eu45   2.490       .  S
O33          C56   1.277       .  A
O33         Eu47   2.391       .  S
O34          C57   1.277       .  A
O34         Eu47   2.392   1_655  S
O35          C56   1.297       .  A
O35         Eu45   2.489       .  S
O36          C57   1.298       .  A
O36         Eu46   2.495       .  S
O37          C52   1.278       .  A
O37         Eu43   2.396       .  S
O38          C55   1.276       .  A
O38         Eu44   2.386       .  S
O39          C54   1.276       .  A
O39         Eu44   2.387   1_655  S
O40          C53   1.278       .  A
O40         Eu43   2.394   1_655  S
O41          C50   1.296       .  A
O41         Eu47   2.501   1_655  S
O42          C51   1.296       .  A
O42         Eu47   2.500   1_655  S
Eu43         O61   2.355   1_455  S
Eu43         O49   2.350       .  S
Eu44         O48   2.348   1_455  S
Eu44         O59   2.352       .  S
Eu45         O59   2.363       .  S
Eu45         O49   2.360       .  S
Eu46         O48   2.356       .  S
Eu46         O61   2.362       .  S
Eu47         O48   2.348   1_455  S
Eu47         O59   2.355       .  S
Eu47         O61   2.355   1_455  S
Eu47         O49   2.352       .  S
C50         C630   1.471       .  S
C51         C625   1.472       .  S
C52         C621   1.422       .  S
C53         C623   1.423       .  S
C54         C619   1.417       .  S
C55         C617   1.417       .  S
C56         C609   1.418       .  S
C57         C615   1.422       .  S
H58          O59   0.966       .  S
H60          O61   0.966       .  S
N62          C66   1.359       .  A
N62          C63   1.358       .  A
N62         C629   1.429       .  S
C63          C64   1.377       .  A
C63         C605   1.426       .  S
C64          C65   1.364       .  A
C64          H67   1.083       .  S
C65          C66   1.378       .  A
C65          H68   1.083       .  S
C66         C608   1.426       .  S
N69          C73   1.357       .  A
N69          C70   1.356       .  A
N69         C627   1.428       .  S
C70          C71   1.377       .  A
C70         C604   1.422       .  S
C71          C72   1.363       .  A
C71          H74   1.083       .  S
C72          C73   1.377       .  A
C72          H75   1.083       .  S
C73         C602   1.423       .  S
N76          C80   1.358       .  A
N76          C77   1.359       .  A
N76         C626   1.429       .  S
C77          C78   1.377       .  A
C77         C598   1.425       .  S
C78          C79   1.363       .  A
C78          H81   1.083       .  S
C79          C80   1.377       .  A
C79          H82   1.083       .  S
C80         C600   1.425       .  S
O83          C94   1.297       .  A
O83        Eu119   2.495   1_445  S
O84          C95   1.297       .  A
O84        Eu118   2.493   1_545  S
O85          C96   1.295       .  A
O85         Eu91   2.498       .  S
O86          C97   1.296       .  A
O86         Eu91   2.502   1_455  S
O87          C97   1.296       .  A
O87        Eu121   2.502   1_545  S
O88          C96   1.296       .  A
O88        Eu120   2.499   1_545  S
O89          C95   1.278       .  A
O89         Eu91   2.394       .  S
O90          C94   1.278       .  A
O90         Eu91   2.394   1_455  S
Eu91        O101   2.349   1_655  S
Eu91         O93   2.352       .  S
Eu91         O92   2.352   1_655  S
Eu91         O99   2.353       .  S
O92        Eu121   2.353   1_545  S
O92        Eu118   2.360   1_445  S
O93        Eu119   2.357   1_545  S
O93        Eu120   2.356   1_545  S
C94         C633   1.423       .  S
C95         C603   1.421       .  S
C96         C594   1.470       .  S
C97         C596   1.473       .  S
H98          O99   0.966       .  S
O99        Eu120   2.354   1_545  S
O99        Eu118   2.361   1_545  S
H100        O101   0.965       .  S
O101       Eu119   2.357   1_445  S
O101       Eu121   2.352   1_545  S
O102        C125   1.298       .  A
O102       Eu118   2.498       .  S
O103        C126   1.297   1_655  A
O103       Eu119   2.491       .  S
O104        C127   1.279       .  A
O104       Eu120   2.403       .  S
O105        C128   1.278   1_565  A
O105       Eu121   2.396       .  S
O106        C129   1.278       .  A
O106       Eu121   2.394       .  S
O107        C130   1.278       .  A
O107       Eu120   2.395       .  S
O108        C131   1.296       .  A
O108       Eu122   2.503   1_655  S
O109        C132   1.295       .  A
O109       Eu122   2.499       .  S
O110        C131   1.296       .  A
O110       Eu120   2.503       .  S
O111        C132   1.295       .  A
O111       Eu121   2.499       .  S
O112        C127   1.297       .  A
O112       Eu118   2.495       .  S
O113        C130   1.298       .  A
O113       Eu119   2.497       .  S
O114        C129   1.297       .  A
O114       Eu119   2.491   1_455  S
O115        C128   1.298       .  A
O115       Eu118   2.496   1_445  S
O116        C125   1.278       .  A
O116       Eu122   2.395   1_655  S
O117        C126   1.279       .  A
O117       Eu122   2.400       .  S
Eu118       O136   2.364   1_655  S
Eu118       O124   2.362       .  S
Eu119       O123   2.361   1_655  S
Eu119       O134   2.360       .  S
Eu120       O134   2.352       .  S
Eu120       O124   2.352       .  S
Eu121       O123   2.352       .  S
Eu121       O136   2.355       .  S
Eu122       O123   2.351       .  S
Eu122       O134   2.354   1_455  S
Eu122       O136   2.359       .  S
Eu122       O124   2.355   1_455  S
C125        C607   1.424       .  S
C126        C599   1.424   1_455  S
C127        C581   1.426   1_565  S
C128        C584   1.424       .  S
C129        C585   1.421       .  S
C130        C587   1.424       .  S
C131        C591   1.473       .  S
C132        C589   1.471       .  S
H133        O134   0.966       .  S
H135        O136   0.966       .  S
N137        C141   1.359       .  A
N137        C138   1.359       .  A
N137        C595   1.429       .  S
C138        C139   1.378       .  A
C138        C613   1.428       .  S
C139        C140   1.364       .  A
C139        H142   1.083       .  S
C140        C141   1.378       .  A
C140        H143   1.083       .  S
C141        C579   1.428       .  S
N144        C148   1.358       .  A
N144        C145   1.358       .  A
N144        C593   1.428       .  S
C145        C146   1.377       .  A
C145        C612   1.424       .  S
C146        C147   1.363       .  A
C146        H149   1.083       .  S
C147        C148   1.377       .  A
C147        H150   1.083       .  S
C148        C577   1.424       .  S
N151        C155   1.359       .  A
N151        C152   1.359       .  A
N151        C592   1.430       .  S
C152        C153   1.377       .  A
C152        C575   1.424       .  S
C153        C154   1.362       .  A
C153        H156   1.083       .  S
C154        C155   1.377       .  A
C154        H157   1.083       .  S
C155        C616   1.424       .  S
N158        C162   1.356       .  A
N158        C159   1.356       .  A
N158        C590   1.428       .  S
C159        C160   1.377       .  A
C159        C610   1.419       .  S
C160        C161   1.362       .  A
C160        H163   1.083       .  S
C161        C162   1.377       .  A
C161        H164   1.083       .  S
C162        C573   1.419       .  S
N165        C169   1.358       .  A
N165        C166   1.359       .  A
N165        C572   1.428   1_545  S
C166        C167   1.377       .  A
C166        C588   1.425       .  S
C167        C168   1.363       .  A
C167        H170   1.083       .  S
C168        C169   1.377       .  A
C168        H171   1.083       .  S
C169        C569   1.425       .  S
O172        C183   1.298       .  A
O172       Eu208   2.496       .  S
O173        C184   1.297       .  A
O173       Eu207   2.490       .  S
O174        C185   1.296       .  A
O174       Eu180   2.504       .  S
O175        C186   1.295       .  A
O175       Eu180   2.498       .  S
O176        C186   1.295       .  A
O176       Eu210   2.498       .  S
O177        C185   1.296       .  A
O177       Eu209   2.503       .  S
O178        C184   1.277       .  A
O178       Eu180   2.388       .  S
O179        C183   1.278       .  A
O179       Eu180   2.397   1_545  S
Eu180       O190   2.353   1_565  S
Eu180       O182   2.346   1_565  S
Eu180       O181   2.354       .  S
Eu180       O188   2.356       .  S
O181       Eu210   2.348       .  S
O181       Eu207   2.360       .  S
O182       Eu208   2.354       .  S
O182       Eu209   2.349   1_545  S
C183        C580   1.426       .  S
C184        C574   1.418       .  S
C185        C564   1.474       .  S
C186        C567   1.469   1_565  S
H187        O188   0.966       .  S
O188       Eu209   2.355       .  S
O188       Eu207   2.363       .  S
H189        O190   0.966       .  S
O190       Eu208   2.361       .  S
O190       Eu210   2.359   1_545  S
O191        C214   1.298       .  A
O191       Eu207   2.496       .  S
O192        C215   1.297       .  A
O192       Eu208   2.493       .  S
O193        C216   1.278       .  A
O193       Eu209   2.398       .  S
O194        C217   1.280       .  A
O194       Eu210   2.406       .  S
O195        C218   1.277       .  A
O195       Eu210   2.388   1_545  S
O196        C219   1.278       .  A
O196       Eu209   2.397   1_545  S
O197        C220   1.295       .  A
O197       Eu211   2.498       .  S
O198        C221   1.296       .  A
O198       Eu211   2.501       .  S
O199        C220   1.295       .  A
O199       Eu209   2.497       .  S
O200        C221   1.296       .  A
O200       Eu210   2.500       .  S
O201        C216   1.298       .  A
O201       Eu207   2.499       .  S
O202        C219   1.297       .  A
O202       Eu208   2.493       .  S
O203        C218   1.297       .  A
O203       Eu208   2.492       .  S
O204        C217   1.297       .  A
O204       Eu207   2.493       .  S
O205        C214   1.278       .  A
O205       Eu211   2.394       .  S
O206        C215   1.278       .  A
O206       Eu211   2.397   1_545  S
Eu207       O225   2.364       .  S
Eu207       O213   2.358       .  S
Eu208       O212   2.357       .  S
Eu208       O223   2.360       .  S
Eu209       O223   2.354   1_565  S
Eu209       O213   2.352       .  S
Eu210       O212   2.351   1_565  S
Eu210       O225   2.356       .  S
Eu211       O212   2.346   1_565  S
Eu211       O223   2.355   1_565  S
Eu211       O225   2.355       .  S
Eu211       O213   2.354       .  S
C214        C576   1.423       .  S
C215        C578   1.423       .  S
C216        C557   1.426       .  S
C217        C562   1.426       .  S
C218        C559   1.419       .  S
C219        C555   1.424       .  S
C220        C571   1.469       .  S
C221        C565   1.472   1_565  S
H222        O223   0.966       .  S
H224        O225   0.966       .  S
N226        C230   1.358       .  A
N226        C227   1.357       .  A
N226        C568   1.427       .  S
C227        C228   1.378       .  A
C227        C553   1.426       .  S
C228        C229   1.365       .  A
C228        H231   1.083       .  S
C229        C230   1.378       .  A
C229        H232   1.083       .  S
C230        C583   1.426       .  S
N233        C237   1.358       .  A
N233        C234   1.358       .  A
N233        C566   1.429       .  S
C234        C235   1.378       .  A
C234        C582   1.427       .  S
C235        C236   1.364       .  A
C235        H238   1.083       .  S
C236        C237   1.378       .  A
C236        H239   1.083       .  S
C237        C552   1.427       .  S
N240        C244   1.358   1_565  A
N240        C241   1.359       .  A
N240        C563   1.430       .  S
C241        C242   1.377   1_565  A
C241        C549   1.422       .  S
C242        C243   1.361       .  A
C242        H245   1.083       .  S
C243        C244   1.377       .  A
C243        H246   1.083       .  S
C244        C586   1.422   1_545  S
O247        C258   1.297       .  A
O247       Eu283   2.493   1_554  S
O248        C259   1.298       .  A
O248       Eu282   2.498   1_554  S
O249        C260   1.296       .  A
O249       Eu255   2.500   1_545  S
O250        C261   1.295       .  A
O250       Eu255   2.497       .  S
O251        C261   1.296       .  A
O251       Eu285   2.504   1_554  S
O252        C260   1.295       .  A
O252       Eu284   2.497   1_554  S
O253        C259   1.277       .  A
O253       Eu255   2.388       .  S
O254        C258   1.278       .  A
O254       Eu255   2.398       .  S
Eu255       O265   2.350       .  S
Eu255       O257   2.351   1_565  S
Eu255       O256   2.354       .  S
Eu255       O263   2.351   1_565  S
O256       Eu285   2.350   1_554  S
O256       Eu282   2.359   1_554  S
O257       Eu283   2.357   1_544  S
O257       Eu284   2.352   1_554  S
C258        C570   1.424       .  S
C259        C550   1.422       .  S
C260        C547   1.469       .  S
C261        C545   1.473       .  S
H262        O263   0.966       .  S
O263       Eu284   2.353   1_554  S
O263       Eu282   2.359   1_544  S
H264        O265   0.966       .  S
O265       Eu283   2.365   1_554  S
O265       Eu285   2.356   1_554  S
O266        C289   1.297       .  A
O266       Eu282   2.490       .  S
O267        C290   1.298       .  A
O267       Eu283   2.498       .  S
O268        C291   1.278       .  A
O268       Eu284   2.395       .  S
O269        C292   1.278       .  A
O269       Eu285   2.397       .  S
O270        C293   1.277       .  A
O270       Eu285   2.391       .  S
O271        C294   1.279       .  A
O271       Eu284   2.402       .  S
O272        C295   1.296       .  A
O272       Eu286   2.502   1_545  S
O273        C296   1.296       .  A
O273       Eu286   2.500       .  S
O274        C295   1.296       .  A
O274       Eu284   2.501       .  S
O275        C296   1.295       .  A
O275       Eu285   2.499       .  S
O276        C291   1.297       .  A
O276       Eu282   2.492   1_545  S
O277        C294   1.298       .  A
O277       Eu283   2.496   1_545  S
O278        C293   1.297       .  A
O278       Eu283   2.493       .  S
O279        C292   1.298       .  A
O279       Eu282   2.496       .  S
O280        C289   1.279       .  A
O280       Eu286   2.402       .  S
O281        C290   1.278       .  A
O281       Eu286   2.398       .  S
Eu282       O300   2.363       .  S
Eu282       O288   2.361   1_565  S
Eu283       O287   2.361       .  S
Eu283       O298   2.359   1_565  S
Eu284       O298   2.348       .  S
Eu284       O288   2.352       .  S
Eu285       O287   2.356       .  S
Eu285       O300   2.356       .  S
Eu286       O287   2.354       .  S
Eu286       O298   2.353   1_565  S
Eu286       O300   2.352       .  S
Eu286       O288   2.354   1_565  S
C289        C554   1.424   1_565  S
C290        C551   1.425   1_565  S
C291        C539   1.422       .  S
C292        C536   1.424       .  S
C293        C537   1.420       .  S
C294        C533   1.427       .  S
C295        C541   1.472       .  S
C296        C543   1.471       .  S
H297        O298   0.966       .  S
H299        O300   0.966       .  S
N301        C305   1.357       .  A
N301        C302   1.357       .  A
N301        C548   1.427       .  S
C302        C303   1.378       .  A
C302        C556   1.426       .  S
C303        C304   1.365       .  A
C303        H306   1.083       .  S
C304        C305   1.378       .  A
C304        H307   1.083       .  S
C305        C532   1.427       .  S
N308        C312   1.359       .  A
N308        C309   1.359       .  A
N308        C546   1.429       .  S
C309        C310   1.377       .  A
C309        C530   1.426       .  S
C310        C311   1.363       .  A
C310        H313   1.083       .  S
C311        C312   1.378       .  A
C311        H314   1.083       .  S
C312        C558   1.426       .  S
N315        C319   1.359       .  A
N315        C316   1.359       .  A
N315        C544   1.428       .  S
C316        C317   1.377       .  A
C316        C528   1.426       .  S
C317        C318   1.364       .  A
C317        H320   1.083       .  S
C318        C319   1.377       .  A
C318        H321   1.083       .  S
C319        C561   1.427       .  S
N322        C326   1.357       .  A
N322        C323   1.357       .  A
N322        C542   1.429       .  S
C323        C324   1.377       .  A
C323        C560   1.420       .  S
C324        C325   1.362       .  A
C324        H327   1.083       .  S
C325        C326   1.377       .  A
C325        H328   1.083       .  S
C326        C525   1.421       .  S
O329        C340   1.297       .  A
O329       Eu365   2.492   1_554  S
O330        C341   1.298   1_455  A
O330       Eu364   2.495   1_554  S
O331        C342   1.296       .  A
O331       Eu337   2.500       .  S
O332        C343   1.296       .  A
O332       Eu337   2.503   1_655  S
O333        C343   1.295       .  A
O333       Eu367   2.498   1_554  S
O334        C342   1.296       .  A
O334       Eu366   2.500   1_554  S
O335        C341   1.278   1_455  A
O335       Eu337   2.395       .  S
O336        C340   1.278       .  A
O336       Eu337   2.395       .  S
Eu337       O347   2.357   1_455  S
Eu337       O339   2.349       .  S
Eu337       O338   2.348   1_455  S
Eu337       O345   2.359       .  S
O338       Eu367   2.351   1_554  S
O338       Eu364   2.357   1_654  S
O339       Eu365   2.356   1_554  S
O339       Eu366   2.349   1_554  S
C340        C631   1.422       .  S
C341        C597   1.424       .  S
C342        C521   1.471       .  S
C343        C523   1.472       .  S
H344        O345   0.966       .  S
O345       Eu366   2.358   1_554  S
O345       Eu364   2.364   1_554  S
H346        O347   0.966       .  S
O347       Eu365   2.364   1_654  S
O347       Eu367   2.355   1_554  S
O348        C371   1.297       .  A
O348       Eu364   2.494       .  S
O349        C372   1.297   1_455  A
O349       Eu365   2.493       .  S
O350        C373   1.278       .  A
O350       Eu366   2.395       .  S
O351        C374   1.277       .  A
O351       Eu367   2.392       .  S
O352        C375   1.279       .  A
O352       Eu367   2.401       .  S
O353        C376   1.278       .  A
O353       Eu366   2.396       .  S
O354        C377   1.295       .  A
O354       Eu368   2.499       .  S
O355        C378   1.296       .  A
O355       Eu368   2.500   1_655  S
O356        C377   1.296       .  A
O356       Eu366   2.503       .  S
O357        C378   1.295       .  A
O357       Eu367   2.499       .  S
O358        C373   1.297       .  A
O358       Eu364   2.495       .  S
O359        C376   1.297       .  A
O359       Eu365   2.493       .  S
O360        C375   1.298       .  A
O360       Eu365   2.498   1_655  S
O361        C374   1.297       .  A
O361       Eu364   2.490   1_655  S
O362        C371   1.279       .  A
O362       Eu368   2.400       .  S
O363        C372   1.277   1_455  A
O363       Eu368   2.391       .  S
Eu364       O382   2.363   1_455  S
Eu364       O370   2.356       .  S
Eu365       O369   2.353   1_455  S
Eu365       O380   2.367       .  S
Eu366       O380   2.357       .  S
Eu366       O370   2.349       .  S
Eu367       O369   2.346       .  S
Eu367       O382   2.356       .  S
Eu368       O369   2.351   1_455  S
Eu368       O380   2.357       .  S
Eu368       O382   2.355   1_455  S
Eu368       O370   2.346       .  S
C371        C606   1.425   1_455  S
C372        C601   1.421       .  S
C373        C514   1.423       .  S
C374        C510   1.420       .  S
C375        C511   1.427       .  S
C376        C516   1.423   1_556  S
C377        C519   1.473       .  S
C378        C517   1.471       .  S
H379        O380   0.966       .  S
H381        O382   0.966       .  S
N383        C387   1.357       .  A
N383        C384   1.356       .  A
N383        C524   1.430       .  S
C384        C385   1.377       .  A
C384        C620   1.419       .  S
C385        C386   1.361       .  A
C385        H388   1.083       .  S
C386        C387   1.377       .  A
C386        H389   1.083       .  S
C387        C507   1.420       .  S
N390        C394   1.357       .  A
N390        C391   1.356       .  A
N390        C522   1.429       .  S
C391        C392   1.377       .  A
C391        C506   1.418       .  S
C392        C393   1.361       .  A
C392        H395   1.083       .  S
C393        C394   1.377       .  A
C393        H396   1.083       .  S
C394        C618   1.418       .  S
N397        C401   1.359       .  A
N397        C398   1.359       .  A
N397        C520   1.430       .  S
C398        C399   1.377       .  A
C398        C503   1.422       .  S
C399        C400   1.362       .  A
C399        H402   1.083       .  S
C400        C401   1.377       .  A
C400        H403   1.083       .  S
C401        C622   1.423       .  S
N404        C408   1.358       .  A
N404        C405   1.359       .  A
N404        C518   1.429       .  S
C405        C406   1.377       .  A
C405        C624   1.425       .  S
C406        C407   1.363       .  A
C406        H409   1.083       .  S
C407        C408   1.377       .  A
C407        H410   1.083       .  S
C408        C501   1.424       .  S
N411        C415   1.358       .  A
N411        C412   1.358       .  A
N411        C500   1.429       .  S
C412        C413   1.377       .  A
C412        C515   1.424       .  S
C413        C414   1.363       .  A
C413        H416   1.083       .  S
C414        C415   1.377       .  A
C414        H417   1.083       .  S
C415        C540   1.424       .  S
O418        C429   1.298       .  A
O418       Eu454   2.497       .  S
O419        C430   1.297       .  A
O419       Eu453   2.490       .  S
O420        C431   1.296       .  A
O420       Eu426   2.502       .  S
O421        C432   1.295       .  A
O421       Eu426   2.498       .  S
O422        C432   1.295       .  A
O422       Eu456   2.499       .  S
O423        C431   1.295       .  A
O423       Eu455   2.499       .  S
O424        C430   1.277       .  A
O424       Eu426   2.392       .  S
O425        C429   1.278       .  A
O425       Eu426   2.396   1_554  S
Eu426       O436   2.356   1_556  S
Eu426       O428   2.346   1_556  S
Eu426       O427   2.350       .  S
Eu426       O434   2.357       .  S
O427       Eu456   2.348       .  S
O427       Eu453   2.357       .  S
O428       Eu454   2.354       .  S
O428       Eu455   2.347   1_554  S
C429        C531   1.425       .  S
C430        C526   1.420       .  S
C431        C499   1.471       .  S
C432        C493   1.470       .  S
H433        O434   0.966       .  S
O434       Eu455   2.352       .  S
O434       Eu453   2.365       .  S
H435        O436   0.966       .  S
O436       Eu454   2.364       .  S
O436       Eu456   2.359   1_554  S
O437        C460   1.298       .  A
O437       Eu453   2.497       .  S
O438        C461   1.297       .  A
O438       Eu454   2.494       .  S
O439        C462   1.277       .  A
O439       Eu455   2.387       .  S
O440        C463   1.278       .  A
O440       Eu456   2.397       .  S
O441        C464   1.276       .  A
O441       Eu456   2.387   1_554  S
O442        C465   1.277       .  A
O442       Eu455   2.390   1_554  S
O443        C466   1.295       .  A
O443       Eu457   2.497       .  S
O444        C467   1.295       .  A
O444       Eu457   2.499       .  S
O445        C466   1.295       .  A
O445       Eu455   2.497       .  S
O446        C467   1.296       .  A
O446       Eu456   2.504       .  S
O447        C462   1.298       .  A
O447       Eu453   2.496       .  S
O448        C465   1.296       .  A
O448       Eu454   2.487       .  S
O449        C464   1.297       .  A
O449       Eu454   2.492       .  S
O450        C463   1.297       .  A
O450       Eu453   2.493       .  S
O451        C460   1.279       .  A
O451       Eu457   2.399       .  S
O452        C461   1.279       .  A
O452       Eu457   2.399   1_554  S
Eu453       O471   2.362       .  S
Eu453       O459   2.354       .  S
Eu454       O458   2.359       .  S
Eu454       O469   2.363       .  S
Eu455       O469   2.352   1_556  S
Eu455       O459   2.350       .  S
Eu456       O458   2.352   1_556  S
Eu456       O471   2.351       .  S
Eu457       O458   2.352   1_556  S
Eu457       O469   2.355   1_556  S
Eu457       O471   2.353       .  S
Eu457       O459   2.351       .  S
C460        C527   1.426       .  S
C461        C529   1.424       .  S
C462        C504   1.422       .  S
C463        C502   1.423       .  S
C464        C508   1.418       .  S
C465        C505   1.417       .  S
C466        C495   1.469       .  S
C467        C498   1.473       .  S
H468        O469   0.966       .  S
H470        O471   0.966       .  S
N472        C476   1.358       .  A
N472        C473   1.358       .  A
N472        C497   1.430   1_554  S
C473        C474   1.377       .  A
C473        C538   1.421   1_554  S
C474        C475   1.362       .  A
C474        H477   1.083       .  S
C475        C476   1.377       .  A
C475        H478   1.083       .  S
C476        C509   1.421       .  S
N479        C483   1.357       .  A
N479        C480   1.357       .  A
N479        C496   1.427       .  S
C480        C481   1.378       .  A
C480        C535   1.426       .  S
C481        C482   1.365       .  A
C481        H484   1.083       .  S
C482        C483   1.378       .  A
C482        H485   1.083       .  S
C483        C513   1.426       .  S
N486        C490   1.359       .  A
N486        C487   1.360       .  A
N486        C494   1.428       .  S
C487        C488   1.378       .  A
C487        C512   1.428       .  S
C488        C489   1.364       .  A
C488        H491   1.083       .  S
C489        C490   1.377       .  A
C489        H492   1.083       .  S
C490        C534   1.427       .  S
C493        C494   1.226       .  T
C495        C496   1.226       .  T
C497        C498   1.228       .  T
C499        C500   1.227   1_556  T
C501        C502   1.199       .  T
C503        C504   1.198       .  T
C505        C506   1.195       .  T
C507        C508   1.197       .  T
C509        C510   1.197   1_554  T
C511        C512   1.201       .  T
C513        C514   1.200       .  T
C515        C516   1.199       .  T
C517        C518   1.227       .  T
C519        C520   1.228       .  T
C521        C522   1.227       .  T
C523        C524   1.228       .  T
C525        C526   1.197       .  T
C527        C528   1.201       .  T
C529        C530   1.200       .  T
C531        C532   1.200       .  T
C533        C534   1.201       .  T
C535        C536   1.200       .  T
C537        C538   1.198       .  T
C539        C540   1.199   1_556  T
C541        C542   1.227       .  T
C543        C544   1.227       .  T
C545        C546   1.228       .  T
C547        C548   1.226       .  T
C549        C550   1.198       .  T
C551        C552   1.201       .  T
C553        C554   1.200       .  T
C555        C556   1.200       .  T
C557        C558   1.201       .  T
C559        C560   1.197       .  T
C561        C562   1.201       .  T
C563        C564   1.229       .  T
C565        C566   1.228       .  T
C567        C568   1.226       .  T
C569        C570   1.199   1_545  T
C571        C572   1.226       .  T
C573        C574   1.196       .  T
C575        C576   1.199       .  T
C577        C578   1.199       .  T
C579        C580   1.201       .  T
C581        C582   1.201       .  T
C583        C584   1.200       .  T
C585        C586   1.198       .  T
C587        C588   1.200   1_565  T
C589        C590   1.227       .  T
C591        C592   1.228       .  T
C593        C594   1.226       .  T
C595        C596   1.228       .  T
C597        C598   1.200       .  T
C599        C600   1.199       .  T
C601        C602   1.198       .  T
C603        C604   1.198       .  T
C605        C606   1.200       .  T
C607        C608   1.200       .  T
C609        C610   1.196       .  T
C611        C612   1.199       .  T
C613        C614   1.201       .  T
C615        C616   1.199       .  T
C617        C618   1.196       .  T
C619        C620   1.196       .  T
C621        C622   1.198       .  T
C623        C624   1.199       .  T
C625        C626   1.227       .  T
C627        C628   1.226       .  T
C629        C630   1.227       .  T
C631        C632   1.198       .  T
C633        C634   1.199       .  T
C635        C636   1.227       .  T
