geometry optimzed in LAMMPS
_audit_creation_date              2020-11-30 
_audit_creation_method            'lammps2cif' 
_symmetry_space_group_name_H-M    'P1' 
_symmetry_Int_Tables_number       1 
_symmetry_cell_setting            triclinic 
loop_ 
_symmetry_equiv_pos_as_xyz 
  x,y,z 
_cell_length_a                    47.62924898608677 
_cell_length_b                    25.3457283862493 
_cell_length_c                    49.01781211258989 
_cell_angle_alpha                 89.96974629327246 
_cell_angle_beta                  90.33966480082333 
_cell_angle_gamma                 89.8884361017039 
loop_ 
_atom_site_label 
_atom_site_type_symbol 
_atom_site_fract_x 
_atom_site_fract_y 
_atom_site_fract_z 
_atom_site_charge 
C1          C  0.06986489  0.39709805  0.07073849     0.42140
N2          N  0.10242444  0.44246515  0.05139026     0.01030
C3          C  0.10282577  0.58646008  0.43175863    -0.06850
H4          H  0.12155500  0.41045209  0.41653562     0.06520
C5          C  0.20650691  0.40306308  0.47627879    -0.07200
Co6        Co  0.08309227  0.49961955  0.00120505     0.74180
N7          N  0.10992158  0.44495172  0.45438686    -0.26380
Co8        Co  0.13998126  0.50305863  0.45660229     0.74070
C9          C  0.19457077  0.37166362  0.45397067     0.42240
N10         N  0.18423307  0.43977351  0.03762452     0.00640
N11         N  0.17132784  0.44466868  0.45855718     0.00750
N12         N  0.06322523  0.57686669  0.45587067    -0.47220
H13         H  0.03875814  0.41768432  0.03602763     0.06510
N14         N  0.08722476  0.44279532  0.46971474     0.01040
N15         N  0.16945757  0.56339512  0.46029483     0.00780
C16         C  0.19005242  0.63928950  0.45878545     0.42380
N17         N  0.16339935  0.44119607  0.05514264    -0.25830
C18         C  0.06005239  0.58549530  0.04277284    -0.06750
N19         N  0.09624168  0.41463106  0.07315593    -0.46940
N20         N  0.16905378  0.60996872  0.44785099    -0.47160
C21         C  0.06987771  0.60648025  0.06926498     0.42150
N22         N  0.08501551  0.55564873  0.46908424     0.01020
N23         N  0.16331232  0.55802587  0.05627961    -0.25850
N24         N  0.08175343  0.44423449  0.03336121    -0.26350
N25         N  0.18467835  0.55893336  0.03944823     0.00660
H26         H  0.14649945  0.61537934  0.08436043     0.06550
H27         H  0.22131379  0.61213559  0.49222591     0.06590
N28         N  0.10799104  0.55824919  0.45419410    -0.26400
N29         N  0.19014326  0.44571633  0.47819043    -0.26010
N30         N  0.10174768  0.55683857  0.05173689     0.01030
C31         C  0.07958676  0.38931180  0.43608164     0.42420
C32         C  0.16188260  0.39469345  0.06808813    -0.07260
N33         N  0.18885933  0.56059375  0.47940397    -0.26010
H34         H  0.22303141  0.39333370  0.49057519     0.06570
N35         N  0.06781682  0.41134439  0.45868410    -0.47230
H36         H  0.14550733  0.38264306  0.08185444     0.06560
C37         C  0.18596659  0.63456559  0.06001064     0.42260
C38         C  0.05995188  0.41726983  0.04406249    -0.06760
Co39       Co  0.13303274  0.49980328  0.05390899     0.73820
N40         N  0.19609422  0.39223242  0.03671163    -0.46950
C41         C  0.07292240  0.59781849  0.43213607     0.42530
N42         N  0.09559298  0.58617387  0.07305046    -0.46940
Co43       Co  0.18802305  0.50120705  0.50880100     0.73890
C44         C  0.20406892  0.60465466  0.47868648    -0.07270
C45         C  0.10739999  0.41180284  0.43370006    -0.06830
N46         N  0.08143805  0.55583256  0.03317675    -0.26360
N47         N  0.17283630  0.40058018  0.44395850    -0.47120
H48         H  0.11653071  0.58738145  0.41423625     0.06530
C49         C  0.16285611  0.60319554  0.07054516    -0.07240
Cl50       Cl  0.13566877  0.50117382  0.00509712    -0.50240
C51         C  0.18308715  0.36180101  0.05556103     0.42290
H52         H  0.03922001  0.58741244  0.03393087     0.06500
N53         N  0.19839069  0.60439834  0.04070006    -0.46950
C54         C  0.29929236  0.36408922  0.05092252     0.42140
N55         N  0.31629352  0.44202816  0.04749065     0.01030
C56         C  0.32022905  0.59766285  0.43345377    -0.06850
H57         H  0.33941328  0.37983883  0.42369484     0.06520
C58         C  0.42662380  0.42040171  0.46587000    -0.07200
Co59       Co  0.29672658  0.49791686  0.49716134     0.74180
N60         N  0.32264398  0.43793629  0.45144162    -0.26380
Co61       Co  0.35208786  0.49837096  0.45258665     0.74070
C62         C  0.41720115  0.39649710  0.43985283     0.42240
N63         N  0.40011899  0.45292098  0.03856831     0.00640
N64         N  0.38416487  0.44411031  0.45669792     0.00750
N65         N  0.28480848  0.60092594  0.46341577    -0.47220
H66         H  0.26937281  0.37779902  0.01476823     0.06510
N67         N  0.30112613  0.43753232  0.46813407     0.01040
N68         N  0.38187327  0.55790804  0.45397884     0.00780
C69         C  0.41141270  0.61203281  0.43650839     0.42380
N70         N  0.37716379  0.45079331  0.05346619    -0.25830
C71         C  0.27836538  0.60118195  0.02755933    -0.06750
N72         N  0.31852649  0.39730816  0.06135680    -0.46940
N73         N  0.38693788  0.58732569  0.43246178    -0.47160
C74         C  0.29048783  0.63388849  0.04945285     0.42150
N75         N  0.29918317  0.55607405  0.46603343     0.01020
N76         N  0.37303808  0.56379753  0.05109191    -0.25850
N77         N  0.29728225  0.44006448  0.02789268    -0.26350
N78         N  0.39618805  0.56610928  0.03649097     0.00660
H79         H  0.35938754  0.59976574  0.08784425     0.06550
H80         H  0.44227937  0.60003183  0.47256742     0.06590
N81         N  0.32050831  0.55433464  0.44910237    -0.26400
N82         N  0.40457214  0.44892528  0.47496990    -0.26010
N83         N  0.31244475  0.55937933  0.04666085     0.01030
C84         C  0.29973635  0.36151996  0.44816086     0.42420
C85         C  0.38202943  0.42180249  0.07564672    -0.07260
N86         N  0.40181337  0.56099030  0.47281111    -0.26010
H87         H  0.44751891  0.42108484  0.47460999     0.06570
N88         N  0.28735923  0.39203912  0.46730098    -0.47230
H89         H  0.36819944  0.41985385  0.09304840     0.06560
C90         C  0.40155952  0.62218380  0.06947656     0.42260
C91         C  0.28462990  0.39280415  0.02915259    -0.06760
Co92       Co  0.34440284  0.50378001  0.04979381     0.73820
N93         N  0.42164293  0.42978919  0.05131976    -0.46950
C94         C  0.29673042  0.62921644  0.44289490     0.42530
N95         N  0.31126638  0.60438272  0.06043424    -0.46940
Co96       Co  0.40157347  0.50742945  0.00583208     0.73890
C97         C  0.42194625  0.59364034  0.46322527    -0.07270
C98         C  0.32318627  0.39218500  0.43763746    -0.06830
N99         N  0.29401863  0.55722552  0.02666921    -0.26360
N100        N  0.39086793  0.41351967  0.43608057    -0.47120
H101        H  0.33620894  0.60867715  0.41900297     0.06530
C102        C  0.37412453  0.59848108  0.07114912    -0.07240
Cl103      Cl  0.34900351  0.50203065  0.00128085    -0.50240
C104        C  0.41147968  0.40778074  0.07460829     0.42290
H105        H  0.26236377  0.61122167  0.01292942     0.06500
N106        N  0.41473163  0.59912461  0.04780796    -0.46950
C107        C  0.16994272  0.10023342  0.16553550     0.42140
N108        N  0.19054045  0.05237705  0.13587403     0.01030
C109        C  0.31520606  0.91765116  0.13803067    -0.06850
H110        H  0.33165099  0.08658594  0.12365116     0.06520
C111        C  0.27010324  0.10497789  0.04160091    -0.07200
Co112      Co  0.24221913  0.99837269  0.15630239     0.74180
N113        N  0.29120607  0.05486243  0.13272831    -0.26380
Co114      Co  0.28988141  0.99886305  0.10266338     0.74070
C115        C  0.29215232  0.13544998  0.05558096     0.42240
N116        N  0.20619605  0.05864190  0.05694528     0.00640
N117        N  0.28846538  0.05825896  0.07362293     0.00750
N118        N  0.28927578  0.92478017  0.17617062    -0.47220
H119        H  0.20489886  0.08417618  0.19746510     0.06510
N120        N  0.27495984  0.05538581  0.15451367     0.01040
N121        N  0.28839963  0.94044514  0.07322798     0.00780
C122        C  0.29179532  0.86398294  0.05450098     0.42380
N123        N  0.18748682  0.05446030  0.07644237    -0.25830
C124        C  0.19844847  0.91105773  0.17644695    -0.06750
N125        N  0.16779435  0.08004292  0.14054183    -0.46940
N126        N  0.30193277  0.89476144  0.07466727    -0.47160
C127        C  0.17199166  0.88977037  0.16473440     0.42150
N128        N  0.27546053  0.94378218  0.15466990     0.01020
N129        N  0.18944428  0.93897779  0.07586026    -0.25850
N130        N  0.20856266  0.05261427  0.15651563    -0.26350
N131        N  0.20758444  0.93913831  0.05576412     0.00660
H132        H  0.16022978  0.88080796  0.09064250     0.06550
H133        H  0.25620925  0.88313078  0.02439187     0.06590
N134        N  0.29132786  0.94258877  0.13264577    -0.26400
N135        N  0.26868257  0.05879114  0.05480461    -0.26010
N136        N  0.19237490  0.93935370  0.13536419     0.01030
C137        C  0.31082170  0.10390644  0.16420299     0.42420
C138        C  0.17102349  0.09732060  0.07653750    -0.07260
N139        N  0.26918929  0.94144658  0.05384756    -0.26010
H140        H  0.25558244  0.11790009  0.02606203     0.06570
N141        N  0.28694214  0.08267419  0.17476593    -0.47230
H142        H  0.15514145  0.10624915  0.09148702     0.06560
C143        C  0.18714553  0.86295889  0.05348005     0.42260
C144        C  0.19695494  0.08142509  0.17680358    -0.06760
Co145      Co  0.18992413  0.99622130  0.10569552     0.73820
N146        N  0.20449925  0.10539046  0.04463066    -0.46950
C147        C  0.31455834  0.90783902  0.16700121     0.42530
N148        N  0.17043785  0.90951816  0.13954732    -0.46940
Co149      Co  0.23794272  0.99980919  0.05407004     0.73890
C150        C  0.27062562  0.89570096  0.04011492    -0.07270
C151        C  0.31344468  0.08524971  0.13672663    -0.06830
N152        N  0.20978600  0.94113243  0.15642611    -0.26360
N153        N  0.30260294  0.10328377  0.07504428    -0.47120
H154        H  0.33342669  0.91896951  0.12497350     0.06530
C155        C  0.17515155  0.89354343  0.07552068    -0.07240
Cl156      Cl  0.23999449  0.99850799  0.10479866    -0.50240
C157        C  0.18274434  0.13216899  0.05609718     0.42290
H158        H  0.20614711  0.90883254  0.19721103     0.06500
N159        N  0.20747362  0.89349803  0.04239654    -0.46950
C160        C  0.20064834  0.14052552  0.45410088     0.42140
N161        N  0.20023331  0.06326147  0.43519209     0.01030
C162        C  0.30918409  0.88975284  0.42752747    -0.06850
H163        H  0.32616711  0.11079355  0.41013782     0.06520
C164        C  0.28709523  0.08083460  0.32840649    -0.07200
Co165      Co  0.24926925  0.99865772  0.45266029     0.74180
N166        N  0.29848169  0.05342087  0.42830745    -0.26380
Co167      Co  0.29526072  0.99443991  0.39921293     0.74070
C168        C  0.31556490  0.09420605  0.33783264     0.42240
N169        N  0.20979379  0.06004584  0.35366268     0.00640
N170        N  0.29506629  0.05043818  0.36893791     0.00750
N171        N  0.27733465  0.88875996  0.46114781    -0.47220
H172        H  0.23600230  0.11217051  0.48344418     0.06510
N173        N  0.28152483  0.05539141  0.44935817     0.01040
N174        N  0.29134382  0.93788484  0.36937428     0.00780
C175        C  0.31390585  0.90492811  0.33557165     0.42380
N176        N  0.19502307  0.06152990  0.37634433    -0.25830
C177        C  0.21477968  0.89935019  0.46779908    -0.06750
N178        N  0.18845976  0.11073941  0.43442962    -0.46940
N179        N  0.31454596  0.91347364  0.36243834    -0.47160
C180        C  0.19210921  0.86964346  0.45464047     0.42150
N181        N  0.27808460  0.93578162  0.44906429     0.01020
N182        N  0.19217176  0.94912879  0.37545406    -0.25850
N183        N  0.22012059  0.05984975  0.45371481    -0.26350
N184        N  0.20792951  0.94815294  0.35333890     0.00660
H185        H  0.15096645  0.92167247  0.38470065     0.06550
H186        H  0.27957321  0.93292966  0.30553078     0.06590
N187        N  0.29584713  0.93624052  0.42866252    -0.26400
N188        N  0.27581531  0.05364650  0.34941045    -0.26010
N189        N  0.19696712  0.94500179  0.43494968     0.01030
C190        C  0.30186661  0.13195677  0.44855497     0.42420
C191        C  0.17291980  0.09257414  0.37319968    -0.07260
N192        N  0.27366889  0.94421210  0.34869100    -0.26010
H193        H  0.27811377  0.08432697  0.30817244     0.06570
N194        N  0.28265686  0.10204077  0.46170317    -0.47230
H195        H  0.15544587  0.09387211  0.38719616     0.06560
C196        C  0.16994554  0.90702596  0.34275935     0.42260
C197        C  0.22092705  0.10508136  0.46764574    -0.06760
Co198      Co  0.19591396  0.00462289  0.40583241     0.73820
N199        N  0.19644415  0.08556821  0.33358525    -0.46950
C200        C  0.29691262  0.85797051  0.44893736     0.42530
N201        N  0.18206089  0.90083107  0.43445240    -0.46940
Co202      Co  0.24158372  0.00163226  0.35064295     0.73890
C203        C  0.28635131  0.92489003  0.32621770    -0.07270
C204        C  0.31250357  0.09920322  0.42655770    -0.06830
N205        N  0.21690150  0.94410078  0.45357806    -0.26360
N206        N  0.31870923  0.07378628  0.36266355    -0.47120
H207        H  0.32318129  0.87722981  0.41151954     0.06530
C208        C  0.16878802  0.92198991  0.37113809    -0.07240
Cl209      Cl  0.24549181  0.99982318  0.40191373    -0.50240
C210        C  0.17324863  0.10806249  0.34495852     0.42290
H211        H  0.22953585  0.88663817  0.48320153     0.06500
N212        N  0.19478107  0.92438404  0.33273967    -0.46950
C213        C  0.05999646  0.16571747  0.19480616     0.42140
N214        N  0.04072460  0.22241437  0.22111130     0.01030
C215        C  0.42278221  0.22572627  0.29941875    -0.06850
H216        H  0.40051191  0.25505610  0.21193478     0.06520
C217        C  0.46528771  0.41596379  0.20364496    -0.07200
Co218      Co  0.49119815  0.18320773  0.25227267     0.74180
N219        N  0.44176279  0.23456896  0.22557776    -0.26380
Co220      Co  0.44572057  0.29161065  0.25527117     0.74070
C221        C  0.44272898  0.39218482  0.18750579     0.42240
N222        N  0.02803691  0.37746431  0.22374940     0.00640
N223        N  0.44733398  0.35047962  0.22561165     0.00750
N224        N  0.44667724  0.14919792  0.29589942    -0.47220
H225        H  0.02645277  0.10314313  0.20561096     0.06510
N226        N  0.45704920  0.19095887  0.22440361     0.01040
N227        N  0.44947564  0.34623860  0.28689465     0.00780
C228        C  0.44798236  0.37852503  0.32762162     0.42380
N229        N  0.04510145  0.33674808  0.22245893    -0.25830
C230        C  0.03636593  0.13977444  0.29553496    -0.06750
N231        N  0.06223259  0.21397631  0.20521609    -0.46940
N232        N  0.43626290  0.34300665  0.31053507    -0.47160
C233        C  0.06389690  0.15978106  0.30489513     0.42150
N234        N  0.45957538  0.18806042  0.28250875     0.01020
N235        N  0.04830759  0.33216688  0.28235834    -0.25850
N236        N  0.02308462  0.18225844  0.22219637    -0.26350
N237        N  0.03084142  0.37193191  0.28510292     0.00660
H238        H  0.07882234  0.29671990  0.30862832     0.06550
H239        H  0.48513035  0.43361232  0.31886907     0.06590
N240        N  0.44469940  0.23205776  0.28347651    -0.26400
N241        N  0.46707372  0.38665318  0.22646810    -0.26010
N242        N  0.04437070  0.21740268  0.27923225     0.01030
C243        C  0.41894272  0.17453436  0.20180084     0.42420
C244        C  0.05821378  0.33693509  0.19840509    -0.07260
N245        N  0.46973994  0.38132890  0.28728661    -0.26010
H246        H  0.47996481  0.44615899  0.19764658     0.06570
N247        N  0.44350190  0.15288938  0.21088472    -0.47230
H248        H  0.07234850  0.30700064  0.19093531     0.06560
C249        C  0.05374459  0.36841378  0.32330861     0.42260
C250        C  0.03402895  0.14329951  0.20652173    -0.06760
Co251      Co  0.04475349  0.27771207  0.25123883     0.73820
N252        N  0.02789590  0.40493975  0.20065672    -0.46950
C253        C  0.42350098  0.17112768  0.30764109     0.42530
N254        N  0.06709516  0.20694902  0.29345066    -0.46940
Co255      Co  0.49896048  0.38155252  0.25578074     0.73890
C256        C  0.46985298  0.40516860  0.31187031    -0.07270
C257        C  0.41825336  0.22836646  0.21132592    -0.06830
N258        N  0.02552915  0.17912728  0.27989420    -0.26360
N259        N  0.43281255  0.35151839  0.20244317    -0.47120
H260        H  0.40540185  0.25320685  0.30018747     0.06530
C261        C  0.06411850  0.32811021  0.30479089    -0.07240
Cl262      Cl  0.49511263  0.28267040  0.25364067    -0.50240
C263        C  0.04660127  0.38161051  0.18379845     0.42290
H264        H  0.02738370  0.10093473  0.29803623     0.06500
N265        N  0.03294743  0.39404908  0.30964503    -0.46950
C266        C  0.03340444  0.61735029  0.18036754     0.42140
N267        N  0.03232020  0.65176654  0.22082711     0.01030
C268        C  0.42258660  0.67827041  0.30732828    -0.06850
H269        H  0.40504085  0.71775432  0.19701738     0.06520
C270        C  0.45033100  0.87185486  0.21448412    -0.07200
Co271      Co  0.48119723  0.62333760  0.25154636     0.74180
N272        N  0.43383354  0.67810220  0.22376210    -0.26380
Co273      Co  0.43891554  0.73221652  0.25440431     0.74070
C274        C  0.42202686  0.85576669  0.20502983     0.42240
N275        N  0.02675579  0.81089740  0.22459650     0.00640
N276        N  0.44238814  0.79091702  0.22543977     0.00750
N277        N  0.45213397  0.60913359  0.30797674    -0.47220
H278        H  0.99416394  0.56722671  0.18993376     0.06510
N279        N  0.45013658  0.63662654  0.22117055     0.01040
N280        N  0.44397394  0.78802723  0.28474239     0.00780
C281        C  0.42391294  0.85269914  0.30545300     0.42380
N282        N  0.04116218  0.76620610  0.22398704    -0.25830
C283        C  0.01323847  0.58591356  0.30436603    -0.06750
N284        N  0.04596828  0.65225316  0.19737206    -0.46940
N285        N  0.42157531  0.80201052  0.29838110    -0.47160
C286        C  0.03645281  0.60762373  0.32038507     0.42150
N287        N  0.45206474  0.63255265  0.28363323     0.01020
N288        N  0.04211971  0.76342743  0.28210818    -0.25850
N289        N  0.01091355  0.61916259  0.22048679    -0.26350
N290        N  0.02800516  0.80844577  0.28235107     0.00660
H291        H  0.08233224  0.73948657  0.29687158     0.06550
H292        H  0.46000438  0.90872161  0.29356384     0.06590
N293        N  0.43577882  0.67437815  0.28349035    -0.26400
N294        N  0.46152763  0.82842037  0.22650044    -0.26010
N295        N  0.03345794  0.64853139  0.28201562     0.01030
C296        C  0.42817118  0.64426493  0.18248434     0.42420
C297        C  0.06333517  0.77163300  0.20797591    -0.07260
N298        N  0.46282215  0.82601385  0.28316588    -0.26010
H299        H  0.45902240  0.91113254  0.21599851     0.06570
N300        N  0.44797696  0.61588102  0.19624750    -0.47230
H301        H  0.08048393  0.74374005  0.20652360     0.06560
C302        C  0.06695823  0.82398089  0.30343189     0.42260
C303        C  0.01034460  0.59426757  0.19621399    -0.06760
Co304      Co  0.03745445  0.70661740  0.25230199     0.73820
N305        N  0.03984813  0.84892065  0.21092560    -0.46950
C306        C  0.43403377  0.63612083  0.32418334     0.42530
N307        N  0.04790710  0.64625747  0.30516657    -0.46940
Co308      Co  0.49502593  0.81972183  0.25414371     0.73890
C309        C  0.45177764  0.86914927  0.29541542    -0.07270
C310        C  0.41858261  0.68462488  0.20111475    -0.06830
N311        N  0.01247878  0.61488268  0.28132785    -0.26360
N312        N  0.41960763  0.80532931  0.21238147    -0.47120
H313        H  0.40941002  0.71088804  0.31313375     0.06530
C314        C  0.06571511  0.76855824  0.29641334    -0.07240
Cl315      Cl  0.48829110  0.72112516  0.25308360    -0.50240
C316        C  0.06255121  0.82583387  0.19926109     0.42290
H317        H  0.99785764  0.55702014  0.31042208     0.06500
N318        N  0.04273071  0.84642324  0.29440856    -0.46950
C319        C  0.36382162  0.93236798  0.33361423    -0.26640
C320        C  0.34109471  0.90565090  0.32095642    -0.14710
C321        C  0.34661696  0.87323600  0.29835697     0.35920
C322        C  0.37455974  0.86388232  0.29118139    -0.26080
C323        C  0.39734803  0.88336198  0.30679933    -0.15320
C324        C  0.39185573  0.92090541  0.32721701     0.37010
N325        N  0.41371038  0.94449247  0.34342783    -0.89570
H326        H  0.35991386  0.95921088  0.35038575     0.18120
H327        H  0.37842187  0.83560248  0.27515653     0.18110
N328        N  0.32495793  0.84570666  0.28363369    -0.88600
H329        H  0.41263461  0.98528759  0.34041085     0.35490
H330        H  0.43353152  0.93275207  0.33682389     0.40590
H331        H  0.30499702  0.85489084  0.29077325     0.40210
H332        H  0.32789291  0.80529542  0.28690554     0.35090
C333        C  0.14484550  0.85531014  0.30750194    -0.26640
C334        C  0.14446188  0.89609023  0.32652807    -0.14710
C335        C  0.11863200  0.92091423  0.33280939     0.35920
C336        C  0.09337024  0.89856806  0.32377972    -0.26080
C337        C  0.09357457  0.85297592  0.30782017    -0.15320
C338        C  0.11959878  0.83419146  0.29743876     0.37010
N339        N  0.12045266  0.79346001  0.27706335    -0.89570
H340        H  0.16474447  0.83802061  0.30164006     0.18120
H341        H  0.07360889  0.91542426  0.33036877     0.18110
N342        N  0.11794165  0.96830129  0.34873325    -0.88600
H343        H  0.14114734  0.78490090  0.27157768     0.35490
H344        H  0.11047916  0.80797918  0.25956435     0.40590
H345        H  0.10797334  0.99757853  0.33715915     0.40210
H346        H  0.10570270  0.96133084  0.36599832     0.35090
C347        C  0.37781259  0.17830296  0.32996937    -0.26640
C348        C  0.39677661  0.14561574  0.31596205    -0.14710
C349        C  0.38741392  0.09588823  0.30667607     0.35920
C350        C  0.35917567  0.08106226  0.31132894    -0.26080
C351        C  0.34022208  0.11572929  0.32421225    -0.15320
C352        C  0.34976195  0.16477553  0.33350057     0.37010
N353        N  0.33099366  0.20023495  0.34737730    -0.89570
H354        H  0.38479175  0.21572433  0.33791841     0.18120
H355        H  0.35221305  0.04171718  0.30593933     0.18110
N356        N  0.40641717  0.06045797  0.29326595    -0.88600
H357        H  0.34101410  0.23589228  0.35185071     0.35490
H358        H  0.32592284  0.18331807  0.36614743     0.40590
H359        H  0.41211314  0.07778969  0.27479552     0.40210
H360        H  0.39626244  0.02514043  0.28835222     0.35090
C361        C  0.10591983  0.10184235  0.30232876    -0.26640
C362        C  0.08866911  0.13551830  0.31778055    -0.14710
C363        C  0.10016823  0.16178625  0.34053924     0.35920
C364        C  0.12863909  0.15557397  0.34680953    -0.26080
C365        C  0.14604240  0.12160533  0.33181653    -0.15320
C366        C  0.13443383  0.09351333  0.30954591     0.37010
N367        N  0.15133475  0.05670903  0.29453092    -0.89570
H368        H  0.09741473  0.08362567  0.28407826     0.18120
H369        H  0.13722288  0.17631140  0.36431023     0.18110
N370        N  0.08278667  0.19518316  0.35721232    -0.88600
H371        H  0.13971526  0.04032180  0.27848385     0.35490
H372        H  0.15638089  0.02551465  0.30765036     0.40590
H373        H  0.07664094  0.22785346  0.34564421     0.40210
H374        H  0.09421742  0.21005935  0.37377645     0.35090
C375        C  0.36393518  0.93780227  0.17374044    -0.26640
C376        C  0.34070897  0.90859067  0.18326704    -0.14710
C377        C  0.34432110  0.87390453  0.20507677     0.35920
C378        C  0.37154366  0.86394855  0.21459433    -0.26080
C379        C  0.39547381  0.88606753  0.20191500    -0.15320
C380        C  0.39141391  0.92614417  0.18231978     0.37010
N381        N  0.41424904  0.95315225  0.16938395    -0.89570
H382        H  0.36103016  0.96698968  0.15780644     0.18120
H383        H  0.37413066  0.83374385  0.22994263     0.18110
N384        N  0.32081983  0.84471975  0.21540867    -0.88600
H385        H  0.41409603  0.94268079  0.14875510     0.35490
H386        H  0.43358388  0.94136173  0.17732880     0.40590
H387        H  0.30750876  0.87154805  0.22511134     0.40210
H388        H  0.32736979  0.81759683  0.23020848     0.35090
C389        C  0.10704501  0.87353368  0.20939678    -0.26640
C390        C  0.08846525  0.85146749  0.19007650    -0.14710
C391        C  0.09834115  0.83872081  0.16400415     0.35920
C392        C  0.12650355  0.84743093  0.15775614    -0.26080
C393        C  0.14528824  0.87046075  0.17657595    -0.15320
C394        C  0.13546562  0.88355933  0.20285975     0.37010
N395        N  0.15409875  0.90620942  0.22277482    -0.89570
H396        H  0.09955688  0.88132592  0.22983044     0.18120
H397        H  0.13372406  0.83742302  0.13746385     0.18110
N398        N  0.07958742  0.81692825  0.14383747    -0.88600
H399        H  0.14363633  0.91207482  0.24122852     0.35490
H400        H  0.15987644  0.94354531  0.21579931     0.40590
H401        H  0.07359371  0.77944677  0.15040103     0.40210
H402        H  0.08991694  0.81152477  0.12528102     0.35090
C403        C  0.37720862  0.18012604  0.17309087    -0.26640
C404        C  0.39279467  0.14898215  0.19142577    -0.14710
C405        C  0.37957030  0.10401294  0.20311585     0.35920
C406        C  0.35130956  0.09271588  0.19623946    -0.26080
C407        C  0.33582501  0.12523393  0.17834726    -0.15320
C408        C  0.34911396  0.16987111  0.16694846     0.37010
N409        N  0.33491694  0.20523239  0.14840731    -0.89570
H410        H  0.38674415  0.21485337  0.16412501     0.18120
H411        H  0.34179717  0.05692576  0.20397880     0.18110
N412        N  0.39354741  0.06935546  0.22203145    -0.88600
H413        H  0.33540648  0.24290243  0.15708560     0.35490
H414        H  0.31367874  0.19594812  0.14630228     0.40590
H415        H  0.41441399  0.07995725  0.22497891     0.40210
H416        H  0.39393752  0.03171373  0.21332600     0.35090
C417        C  0.09888858  0.09968225  0.19903521    -0.26640
C418        C  0.08630634  0.14197933  0.18498465    -0.14710
C419        C  0.10277780  0.17298812  0.16728381     0.35920
C420        C  0.13135082  0.16203519  0.16436114    -0.26080
C421        C  0.14405721  0.11986038  0.17808635    -0.15320
C422        C  0.12767350  0.08781257  0.19540376     0.37010
N423        N  0.14001666  0.04245191  0.20833353    -0.89570
H424        H  0.08658449  0.07719911  0.21346056     0.18120
H425        H  0.14359860  0.18499384  0.15004250     0.18110
N426        N  0.09037911  0.21688398  0.15293338    -0.88600
H427        H  0.12503580  0.02250440  0.21993052     0.35490
H428        H  0.15531581  0.05596158  0.22200344     0.40590
H429        H  0.07534687  0.20177987  0.13943377     0.40210
H430        H  0.10533037  0.23633900  0.14108345     0.35090
C431        C  0.29839345  0.71824398  0.07564936    -0.26640
C432        C  0.29040491  0.69295688  0.05129393    -0.14710
C433        C  0.28481332  0.72458014  0.02822979     0.35920
C434        C  0.28573191  0.77972764  0.02999423    -0.26080
C435        C  0.29318289  0.80518350  0.05417471    -0.15320
C436        C  0.29976118  0.77399255  0.07743325     0.37010
N437        N  0.30723920  0.79859850  0.10285410    -0.89570
H438        H  0.30339262  0.69444134  0.09339612     0.18120
H439        H  0.28119964  0.80308192  0.01196633     0.18110
N440        N  0.27974239  0.70061658  0.00241733    -0.88600
H441        H  0.31231746  0.77013111  0.11753038     0.35490
H442        H  0.28943298  0.81824021  0.11003205     0.40590
H443        H  0.29862492  0.68289262  0.99679748     0.40210
H444        H  0.27469344  0.72927342  0.48799852     0.35090
C445        C  0.32033924  0.21909045  0.06186110    -0.26640
C446        C  0.29447396  0.19425719  0.05680067    -0.14710
C447        C  0.27064094  0.22620493  0.05268273     0.35920
C448        C  0.27304181  0.28111967  0.05120211    -0.26080
C449        C  0.29871171  0.30606650  0.05512070    -0.15320
C450        C  0.32271931  0.27458385  0.06111295     0.37010
N451        N  0.34983396  0.29735035  0.06554128    -0.89570
H452        H  0.33888916  0.19531820  0.06563982     0.18120
H453        H  0.25446142  0.30483989  0.04733159     0.18110
N454        N  0.24359129  0.20286627  0.05093353    -0.88600
H455        H  0.34879437  0.32199303  0.08258596     0.35490
H456        H  0.35511288  0.31979511  0.04842923     0.40590
H457        H  0.23940453  0.18644985  0.07001719     0.40210
H458        H  0.22879989  0.23214944  0.04695922     0.35090
C459        C  0.27284684  0.77287559  0.43756796    -0.26640
C460        C  0.29654562  0.79942197  0.44796700    -0.14710
C461        C  0.32106984  0.77028097  0.45393859     0.35920
C462        C  0.32098207  0.71502688  0.45084847    -0.26080
C463        C  0.29679760  0.68800086  0.44201425    -0.15320
C464        C  0.27291695  0.71739465  0.43422893     0.37010
N465        N  0.24930172  0.69093150  0.42222036    -0.89570
H466        H  0.25447242  0.79554012  0.43165969     0.18120
H467        H  0.33952787  0.69263688  0.45651693     0.18110
N468        N  0.34573212  0.79677023  0.46393340    -0.88600
H469        H  0.23344586  0.71801039  0.41743341     0.35490
H470        H  0.24132259  0.66504979  0.43679028     0.40590
H471        H  0.35327216  0.82065349  0.44822015     0.40210
H472        H  0.36164281  0.76951666  0.46831003     0.35090
C473        C  0.29727259  0.21833944  0.42385434    -0.26640
C474        C  0.30141187  0.19084682  0.44848498    -0.14710
C475        C  0.30455150  0.22011769  0.47271518     0.35920
C476        C  0.30226573  0.27532391  0.47228709    -0.26080
C477        C  0.29828985  0.30293098  0.44768912    -0.15320
C478        C  0.29605754  0.27383891  0.42305801     0.37010
N479        N  0.29188279  0.29886324  0.39700932    -0.89570
H480        H  0.29460728  0.19652739  0.40502972     0.18120
H481        H  0.30492052  0.29694691  0.49119647     0.18110
N482        N  0.31114730  0.19460129  0.49789723    -0.88600
H483        H  0.30981402  0.29186206  0.38535010     0.35490
H484        H  0.28975112  0.33967853  0.39880804     0.40590
H485        H  0.32999611  0.17395866  0.49552986     0.40210
H486        H  0.29535672  0.16728528  0.00182200     0.35090
C487        C  0.41490887  0.67095646  0.36807536    -0.26640
C488        C  0.43305511  0.63534456  0.35481452    -0.14710
C489        C  0.45005322  0.60194120  0.37122510     0.35920
C490        C  0.44660479  0.60193813  0.39990009    -0.26080
C491        C  0.42597211  0.63319774  0.41236619    -0.15320
C492        C  0.41151631  0.67081792  0.39638221     0.37010
N493        N  0.39154354  0.70689601  0.40807400    -0.89570
H494        H  0.40210135  0.69830384  0.35655745     0.18120
H495        H  0.45828098  0.57415519  0.41227064     0.18110
N496        N  0.47001790  0.56697755  0.35888392    -0.88600
H497        H  0.39831484  0.74515266  0.40363178     0.35490
H498        H  0.39151477  0.70419668  0.42934156     0.40590
H499        H  0.45869381  0.53887070  0.34779828     0.40210
H500        H  0.48138289  0.54641453  0.37380339     0.35090
C501        C  0.44470603  0.62900355  0.13430256    -0.26640
C502        C  0.42361578  0.64589540  0.15228352    -0.14710
C503        C  0.39866776  0.66735459  0.14103942     0.35920
C504        C  0.39518054  0.66915723  0.11265519    -0.26080
C505        C  0.41401615  0.64350506  0.09509008    -0.15320
C506        C  0.43977160  0.62557293  0.10583201     0.37010
N507        N  0.45998796  0.60150362  0.08816994    -0.89570
H508        H  0.46475164  0.61784696  0.14263486     0.18120
H509        H  0.37564488  0.68454515  0.10438236     0.18110
N510        N  0.37613790  0.68456070  0.15831887    -0.88600
H511        H  0.47726578  0.58841733  0.09944522     0.35490
H512        H  0.46725666  0.63069685  0.07490804     0.40590
H513        H  0.36858767  0.65140288  0.16861848     0.40210
H514        H  0.35935658  0.69943213  0.14678824     0.35090
C515        C  0.42433423  0.34120696  0.39957062    -0.26640
C516        C  0.43325369  0.38473539  0.41487660    -0.14710
C517        C  0.44893230  0.42448782  0.40167828     0.35920
C518        C  0.45485292  0.42030449  0.37369503    -0.26080
C519        C  0.44404427  0.37867636  0.35790243    -0.15320
C520        C  0.42919864  0.33809308  0.37139063     0.37010
N521        N  0.41790037  0.29444118  0.35652963    -0.89570
H522        H  0.41135429  0.31140392  0.40911154     0.18120
H523        H  0.46667369  0.45139781  0.36402118     0.18110
N524        N  0.45744020  0.47127370  0.41575514    -0.88600
H525        H  0.39616457  0.29447117  0.35938712     0.35490
H526        H  0.42607823  0.25969583  0.36493696     0.40590
H527        H  0.46992084  0.46043604  0.43243866     0.40210
H528        H  0.43947804  0.49027069  0.42301082     0.35090
C529        C  0.42950546  0.44963592  0.11670221    -0.26640
C530        C  0.42710979  0.40375348  0.10073739    -0.14710
C531        C  0.43163890  0.35423607  0.11308508     0.35920
C532        C  0.43765678  0.35149578  0.14127676    -0.26080
C533        C  0.43862930  0.39726381  0.15750163    -0.15320
C534        C  0.43493388  0.44691446  0.14496669     0.37010
N535        N  0.43412422  0.49395347  0.16129571    -0.89570
H536        H  0.42492905  0.48756441  0.10742068     0.18120
H537        H  0.44076687  0.31331753  0.15080237     0.18110
N538        N  0.42920373  0.30686735  0.09713064    -0.88600
H539        H  0.42857591  0.52647947  0.14931962     0.35490
H540        H  0.45443020  0.50113989  0.16844135     0.40590
H541        H  0.40828857  0.30344055  0.09080075     0.40210
H542        H  0.43353458  0.27371088  0.10915245     0.35090
C543        C  0.17575831  0.72531237  0.43698829    -0.26640
C544        C  0.19058406  0.69862044  0.45780476    -0.14710
C545        C  0.20448629  0.72953363  0.47787195     0.35920
C546        C  0.20305412  0.78456336  0.47684282    -0.26080
C547        C  0.18915773  0.81114270  0.45578500    -0.15320
C548        C  0.17518877  0.78100465  0.43562087     0.37010
N549        N  0.16073849  0.80641772  0.41353307    -0.89570
H550        H  0.16484926  0.70288284  0.42140062     0.18120
H551        H  0.21328955  0.80677263  0.49286443     0.17930
N552        N  0.21985316  0.70570996  0.49975248    -0.88600
H553        H  0.13977879  0.79427161  0.41382443     0.35490
H554        H  0.16961347  0.79342355  0.39526317     0.40590
H555        H  0.20529855  0.68514492  0.51110017     0.40210
H556        H  0.22796561  0.73415980  0.01303824     0.35090
C557        C  0.21482567  0.28660774  0.47022651    -0.26640
C558        C  0.19757021  0.31293015  0.45132734    -0.14710
C559        C  0.18248599  0.28175833  0.43220702     0.35920
C560        C  0.18392409  0.22624518  0.43358599    -0.26080
C561        C  0.20015061  0.20000634  0.45362909    -0.15320
C562        C  0.21602719  0.23178626  0.47180345     0.37010
N563        N  0.23349627  0.21041910  0.49266697    -0.89570
H564        H  0.22726888  0.30832508  0.48487246     0.18120
H565        H  0.17198816  0.20354407  0.41883224     0.18110
N566        N  0.16564129  0.30488218  0.41108460    -0.88600
H567        H  0.25036284  0.19143878  0.98348669     0.35490
H568        H  0.22151748  0.18448345  0.50430411     0.40590
H569        H  0.17809185  0.33102695  0.39995859     0.40210
H570        H  0.14922242  0.32565532  0.42010671     0.35090
C571        C  0.16724718  0.77614515  0.04011899    -0.26640
C572        C  0.18796157  0.80453664  0.05408712    -0.14710
C573        C  0.20710334  0.77723993  0.07114008     0.35920
C574        C  0.20605234  0.72171513  0.07270758    -0.26080
C575        C  0.18549414  0.69309331  0.05849920    -0.15320
C576        C  0.16563196  0.72095191  0.04206584     0.37010
N577        N  0.14458542  0.69483867  0.02583284    -0.89570
H578        H  0.15216425  0.79708281  0.02747032     0.18120
H579        H  0.22110733  0.70069596  0.08534486     0.18110
N580        N  0.22664228  0.80620702  0.08776679    -0.88600
H581        H  0.12498485  0.70438389  0.03397219     0.35490
H582        H  0.14649439  0.65391394  0.02635492     0.40590
H583        H  0.24010384  0.82638416  0.07474402     0.40210
H584        H  0.23909872  0.78044574  0.09931602     0.35090
C585        C  0.18675524  0.27632052  0.07964652    -0.26640
C586        C  0.18157072  0.30318647  0.05516772    -0.14710
C587        C  0.17297381  0.27366179  0.03196584     0.35920
C588        C  0.17332725  0.21809622  0.03307716    -0.26080
C589        C  0.18063662  0.19089865  0.05705653    -0.15320
C590        C  0.18681027  0.22089412  0.08105486     0.37010
N591        N  0.19537227  0.19738220  0.10657907    -0.89570
H592        H  0.19212584  0.29873622  0.09777077     0.18120
H593        H  0.16771749  0.19589050  0.01495823     0.18110
N594        N  0.16285173  0.29819436  0.00732939    -0.88600
H595        H  0.21441644  0.21459180  0.11244339     0.35490
H596        H  0.20024006  0.15762145  0.10445220     0.40590
H597        H  0.16160023  0.33906893  0.00917502     0.40210
H598        H  0.14224564  0.28539814  0.00408917     0.35090
C599        C  0.05175033  0.55586263  0.36080337    -0.26640
C600        C  0.04077808  0.60287038  0.35028272    -0.14710
C601        C  0.03567167  0.64562475  0.36818992     0.35920
C602        C  0.04387275  0.64176773  0.39589045    -0.26080
C603        C  0.05705755  0.59615897  0.40588429    -0.15320
C604        C  0.06020496  0.55224536  0.38829246     0.37010
N605        N  0.07370762  0.50520042  0.39811453    -0.89570
H606        H  0.05518116  0.52282522  0.34717847     0.18120
H607        H  0.04148267  0.67547351  0.40926640     0.18110
N608        N  0.02225986  0.69275798  0.35821322    -0.88600
H609        H  0.07514499  0.47698507  0.38264348     0.35490
H610        H  0.06095370  0.48954338  0.41334771     0.40590
H611        H  0.03621717  0.71157563  0.34505872     0.40210
H612        H  0.51864925  0.71908683  0.37423363     0.35090
C613        C  0.03483428  0.58138914  0.10385187    -0.26640
C614        C  0.05352305  0.61942808  0.09393522    -0.14710
C615        C  0.06331032  0.65895001  0.11192058     0.35920
C616        C  0.05542524  0.65774514  0.13941329    -0.26080
C617        C  0.03817386  0.61770004  0.15006332    -0.15320
C618        C  0.02713320  0.57961184  0.13166051     0.37010
N619        N  0.01042214  0.53632992  0.14126753    -0.89570
H620        H  0.02803316  0.55012086  0.09028120     0.18120
H621        H  0.06388177  0.68775961  0.15280838     0.18110
N622        N  0.08216334  0.69985187  0.10321477    -0.88600
H623        H  0.50684431  0.50906799  0.12563785     0.35490
H624        H  0.99068249  0.55055972  0.14618367     0.40590
H625        H  0.08559657  0.69853600  0.08220467     0.40210
H626        H  0.10151769  0.69349380  0.11285980     0.35090
C627        C  0.08404345  0.34021918  0.39383469    -0.26640
C628        C  0.06576722  0.36779270  0.41106878    -0.14710
C629        C  0.04064768  0.38842028  0.39961416     0.35920
C630        C  0.03705343  0.38837202  0.37096710    -0.26080
C631        C  0.05783489  0.36789757  0.35354981    -0.15320
C632        C  0.08168664  0.34351684  0.36543535     0.37010
N633        N  0.10458840  0.32544780  0.34887503    -0.89570
H634        H  0.10275113  0.32242342  0.40251608     0.18120
H635        H  0.01806205  0.40518904  0.36232311     0.18110
N636        N  0.01865423  0.41014475  0.41603091    -0.88600
H637        H  0.12047523  0.30843550  0.36080380     0.35490
H638        H  0.11335942  0.35852099  0.33946212     0.40590
H639        H  0.02276512  0.40469026  0.43671152     0.40210
H640        H  0.50087334  0.38722495  0.41221731     0.35090
C641        C  0.05477549  0.43969959  0.11288710    -0.26640
C642        C  0.05391271  0.39414263  0.09646030    -0.14710
C643        C  0.04785152  0.34517259  0.10881427     0.35920
C644        C  0.04394611  0.34290753  0.13720449    -0.26080
C645        C  0.04706468  0.38798300  0.15378363    -0.15320
C646        C  0.05287599  0.43690422  0.14138113     0.37010
N647        N  0.05956834  0.48341339  0.15692862    -0.89570
H648        H  0.06078281  0.47697095  0.10379417     0.18120
H649        H  0.03978413  0.30496309  0.14654384     0.18110
N650        N  0.04742724  0.29671403  0.09357867    -0.88600
H651        H  0.08035456  0.49359954  0.15270874     0.35490
H652        H  0.05852001  0.47710157  0.17790568     0.40590
H653        H  0.05015250  0.30374867  0.07276773     0.40210
H654        H  0.02739211  0.28043637  0.09556667     0.35090
C655        C  0.06986486  0.39709803  0.57073849     0.42140
N656        N  0.10242440  0.44246512  0.55139026     0.01030
C657        C  0.10282581  0.58646011  0.93175863    -0.06850
H658        H  0.12155501  0.41045213  0.91653561     0.06520
C659        C  0.20650694  0.40306309  0.97627879    -0.07200
Co660      Co  0.08309223  0.49961952  0.50120504     0.74180
N661        N  0.10992161  0.44495176  0.95438686    -0.26380
Co662      Co  0.13998129  0.50305866  0.95660229     0.74070
C663        C  0.19457079  0.37166363  0.95397068     0.42240
N664        N  0.18423303  0.43977348  0.53762452     0.00640
N665        N  0.17132787  0.44466871  0.95855719     0.00750
N666        N  0.06322527  0.57686672  0.95587067    -0.47220
H667        H  0.03875810  0.41768429  0.53602763     0.06510
N668        N  0.08722480  0.44279535  0.96971475     0.01040
N669        N  0.16945760  0.56339514  0.96029483     0.00780
C670        C  0.19005246  0.63928952  0.95878545     0.42380
N671        N  0.16339931  0.44119604  0.55514264    -0.25830
C672        C  0.06005235  0.58549527  0.54277284    -0.06750
N673        N  0.09624164  0.41463103  0.57315593    -0.46940
N674        N  0.16905381  0.60996874  0.94785099    -0.47160
C675        C  0.06987768  0.60648022  0.56926498     0.42150
N676        N  0.08501555  0.55564877  0.96908425     0.01020
N677        N  0.16331228  0.55802584  0.55627961    -0.25850
N678        N  0.08175339  0.44423445  0.53336120    -0.26350
N679        N  0.18467831  0.55893334  0.53944823     0.00660
H680        H  0.14649941  0.61537932  0.58436042     0.06550
H681        H  0.22131382  0.61213563  0.99222591     0.06590
N682        N  0.10799108  0.55824922  0.95419411    -0.26400
N683        N  0.19014330  0.44571635  0.97819044    -0.26010
N684        N  0.10174764  0.55683854  0.55173688     0.01030
C685        C  0.07958678  0.38931186  0.93608164     0.42420
C686        C  0.16188256  0.39469343  0.56808812    -0.07260
N687        N  0.18885936  0.56059377  0.97940397    -0.26010
H688        H  0.22303143  0.39333369  0.99057520     0.06570
N689        N  0.06781685  0.41134444  0.95868411    -0.47230
H690        H  0.14550729  0.38264303  0.58185444     0.06560
C691        C  0.18596656  0.63456557  0.56001063     0.42260
C692        C  0.05995185  0.41726980  0.54406249    -0.06760
Co693      Co  0.13303270  0.49980325  0.55390899     0.73820
N694        N  0.19609418  0.39223239  0.53671162    -0.46950
C695        C  0.07292244  0.59781851  0.93213607     0.42530
N696        N  0.09559294  0.58617385  0.57305045    -0.46940
Co697      Co  0.18802308  0.50120707  0.00880101     0.73890
C698        C  0.20406895  0.60465469  0.97868648    -0.07270
C699        C  0.10740001  0.41180288  0.93370005    -0.06830
N700        N  0.08143801  0.55583252  0.53317675    -0.26360
N701        N  0.17283632  0.40058020  0.94395851    -0.47120
H702        H  0.11653075  0.58738148  0.91423625     0.06530
C703        C  0.16285607  0.60319553  0.57054515    -0.07240
Cl704      Cl  0.13566873  0.50117379  0.50509712    -0.50240
C705        C  0.18308711  0.36180098  0.55556103     0.42290
H706        H  0.03921997  0.58741241  0.53393087     0.06500
N707        N  0.19839065  0.60439831  0.54070005    -0.46950
C708        C  0.29929234  0.36408920  0.55092251     0.42140
N709        N  0.31629350  0.44202815  0.54749065     0.01030
C710        C  0.32022907  0.59766287  0.93345377    -0.06850
H711        H  0.33941329  0.37983884  0.92369484     0.06520
C712        C  0.42662381  0.42040171  0.96587000    -0.07200
Co713      Co  0.29672660  0.49791687  0.99716135     0.74180
N714        N  0.32264399  0.43793630  0.95144162    -0.26380
Co715      Co  0.35208787  0.49837097  0.95258665     0.74070
C716        C  0.41720116  0.39649709  0.93985283     0.42240
N717        N  0.40011897  0.45292097  0.53856831     0.00640
N718        N  0.38416488  0.44411032  0.95669792     0.00750
N719        N  0.28480849  0.60092595  0.96341578    -0.47220
H720        H  0.26937279  0.37779901  0.51476822     0.06510
N721        N  0.30112614  0.43753233  0.96813407     0.01040
N722        N  0.38187329  0.55790804  0.95397884     0.00780
C723        C  0.41141271  0.61203280  0.93650839     0.42380
N724        N  0.37716377  0.45079330  0.55346619    -0.25830
C725        C  0.27836536  0.60118193  0.52755933    -0.06750
N726        N  0.31852647  0.39730815  0.56135680    -0.46940
N727        N  0.38693789  0.58732569  0.93246177    -0.47160
C728        C  0.29048781  0.63388847  0.54945284     0.42150
N729        N  0.29918319  0.55607406  0.96603343     0.01020
N730        N  0.37303806  0.56379751  0.55109191    -0.25850
N731        N  0.29728223  0.44006446  0.52789267    -0.26350
N732        N  0.39618803  0.56610928  0.53649097     0.00660
H733        H  0.35938752  0.59976573  0.58784425     0.06550
H734        H  0.44227938  0.60003182  0.97256741     0.06590
N735        N  0.32050832  0.55433465  0.94910237    -0.26400
N736        N  0.40457215  0.44892528  0.97496990    -0.26010
N737        N  0.31244473  0.55937932  0.54666084     0.01030
C738        C  0.29973636  0.36151997  0.94816087     0.42420
C739        C  0.38202941  0.42180247  0.57564671    -0.07260
N740        N  0.40181338  0.56099030  0.97281110    -0.26010
H741        H  0.44751891  0.42108482  0.97460999     0.06570
N742        N  0.28735925  0.39203913  0.96730099    -0.47230
H743        H  0.36819942  0.41985384  0.59304839     0.06560
C744        C  0.40155950  0.62218379  0.56947656     0.42260
C745        C  0.28462988  0.39280414  0.52915258    -0.06760
Co746      Co  0.34440282  0.50378000  0.54979381     0.73820
N747        N  0.42164292  0.42978918  0.55131977    -0.46950
C748        C  0.29673043  0.62921645  0.94289490     0.42530
N749        N  0.31126636  0.60438271  0.56043424    -0.46940
Co750      Co  0.40157346  0.50742945  0.50583208     0.73890
C751        C  0.42194626  0.59364033  0.96322526    -0.07270
C752        C  0.32318628  0.39218501  0.93763746    -0.06830
N753        N  0.29401861  0.55722550  0.52666920    -0.26360
N754        N  0.39086794  0.41351967  0.93608058    -0.47120
H755        H  0.33620896  0.60867716  0.91900297     0.06530
C756        C  0.37412451  0.59848107  0.57114912    -0.07240
Cl757      Cl  0.34900350  0.50203064  0.50128084    -0.50240
C758        C  0.41147967  0.40778072  0.57460829     0.42290
H759        H  0.26236375  0.61122166  0.51292941     0.06500
N760        N  0.41473161  0.59912460  0.54780796    -0.46950
C761        C  0.16994273  0.10023341  0.66553551     0.42140
N762        N  0.19054045  0.05237702  0.63587403     0.01030
C763        C  0.31520607  0.91765115  0.63803066    -0.06850
H764        H  0.33165098  0.08658592  0.62365114     0.06520
C765        C  0.27010322  0.10497788  0.54160090    -0.07200
Co766      Co  0.24221914  0.99837266  0.65630239     0.74180
N767        N  0.29120607  0.05486241  0.63272829    -0.26380
Co768      Co  0.28988140  0.99886303  0.60266337     0.74070
C769        C  0.29215229  0.13544996  0.55558095     0.42240
N770        N  0.20619603  0.05864188  0.55694528     0.00640
N771        N  0.28846536  0.05825894  0.57362292     0.00750
N772        N  0.28927579  0.92478015  0.67617061    -0.47220
H773        H  0.20489887  0.08417617  0.69746510     0.06510
N774        N  0.27495984  0.05538579  0.65451366     0.01040
N775        N  0.28839962  0.94044513  0.57322796     0.00780
C776        C  0.29179530  0.86398292  0.55450097     0.42380
N777        N  0.18748681  0.05446027  0.57644238    -0.25830
C778        C  0.19844848  0.91105770  0.67644695    -0.06750
N779        N  0.16779436  0.08004290  0.64054183    -0.46940
N780        N  0.30193276  0.89476142  0.57466726    -0.47160
C781        C  0.17199167  0.88977034  0.66473441     0.42150
N782        N  0.27546053  0.94378216  0.65466989     0.01020
N783        N  0.18944427  0.93897777  0.57586027    -0.25850
N784        N  0.20856267  0.05261425  0.65651563    -0.26350
N785        N  0.20758442  0.93913828  0.55576412     0.00660
H786        H  0.16022977  0.88080794  0.59064250     0.06550
H787        H  0.25620922  0.88313076  0.52439187     0.06590
N788        N  0.29132786  0.94258875  0.63264576    -0.26400
N789        N  0.26868255  0.05879113  0.55480461    -0.26010
N790        N  0.19237491  0.93935367  0.63536420     0.01030
C791        C  0.31082170  0.10390642  0.66420297     0.42420
C792        C  0.17102348  0.09732057  0.57653751    -0.07260
N793        N  0.26918927  0.94144656  0.55384755    -0.26010
H794        H  0.25558241  0.11790007  0.52606203     0.06570
N795        N  0.28694214  0.08267417  0.67476592    -0.47230
H796        H  0.15514144  0.10624911  0.59148703     0.06560
C797        C  0.18714552  0.86295887  0.55348005     0.42260
C798        C  0.19695495  0.08142507  0.67680358    -0.06760
Co799      Co  0.18992412  0.99622127  0.60569553     0.73820
N800        N  0.20449922  0.10539043  0.54463066    -0.46950
C801        C  0.31455835  0.90783901  0.66700119     0.42530
N802        N  0.17043785  0.90951813  0.63954733    -0.46940
Co803      Co  0.23794270  0.99980917  0.55407004     0.73890
C804        C  0.27062560  0.89570094  0.54011491    -0.07270
C805        C  0.31344468  0.08524969  0.63672662    -0.06830
N806        N  0.20978600  0.94113240  0.65642612    -0.26360
N807        N  0.30260292  0.10328375  0.57504427    -0.47120
H808        H  0.33342669  0.91896951  0.62497348     0.06530
C809        C  0.17515154  0.89354340  0.57552068    -0.07240
Cl810      Cl  0.23999448  0.99850797  0.60479865    -0.50240
C811        C  0.18274431  0.13216897  0.55609719     0.42290
H812        H  0.20614711  0.90883252  0.69721103     0.06500
N813        N  0.20747360  0.89349801  0.54239653    -0.46950
C814        C  0.20064834  0.14052553  0.95410091     0.42140
N815        N  0.20023332  0.06326148  0.93519211     0.01030
C816        C  0.30918410  0.88975285  0.92752748    -0.06850
H817        H  0.32616712  0.11079355  0.91013783     0.06520
C818        C  0.28709524  0.08083460  0.82840650    -0.07200
Co819      Co  0.24926926  0.99865773  0.95266030     0.74180
N820        N  0.29848170  0.05342088  0.92830747    -0.26380
Co821      Co  0.29526073  0.99443992  0.89921294     0.74070
C822        C  0.31556491  0.09420605  0.83783265     0.42240
N823        N  0.20979380  0.06004585  0.85366269     0.00640
N824        N  0.29506629  0.05043820  0.86893792     0.00750
N825        N  0.27733466  0.88875997  0.96114782    -0.47220
H826        H  0.23600230  0.11217051  0.98344420     0.06510
N827        N  0.28152484  0.05539143  0.94935818     0.01040
N828        N  0.29134383  0.93788485  0.86937429     0.00780
C829        C  0.31390585  0.90492810  0.83557167     0.42380
N830        N  0.19502307  0.06152993  0.87634434    -0.25830
C831        C  0.21477968  0.89935021  0.96779909    -0.06750
N832        N  0.18845976  0.11073942  0.93442964    -0.46940
N833        N  0.31454596  0.91347365  0.86243835    -0.47160
C834        C  0.19210922  0.86964348  0.95464048     0.42150
N835        N  0.27808461  0.93578164  0.94906431     0.01020
N836        N  0.19217177  0.94912881  0.87545407    -0.25850
N837        N  0.22012060  0.05984977  0.95371483    -0.26350
N838        N  0.20792951  0.94815296  0.85333892     0.00660
H839        H  0.15096645  0.92167250  0.88470067     0.06550
H840        H  0.27957320  0.93292964  0.80553079     0.06590
N841        N  0.29584714  0.93624053  0.92866253    -0.26400
N842        N  0.27581532  0.05364651  0.84941046    -0.26010
N843        N  0.19696712  0.94500181  0.93494970     0.01030
C844        C  0.30186662  0.13195678  0.94855499     0.42420
C845        C  0.17291980  0.09257415  0.87319969    -0.07260
N846        N  0.27366889  0.94421210  0.84869101    -0.26010
H847        H  0.27811378  0.08432696  0.80817245     0.06570
N848        N  0.28265687  0.10204079  0.96170318    -0.47230
H849        H  0.15544587  0.09387212  0.88719618     0.06560
C850        C  0.16994554  0.90702598  0.84275937     0.42260
C851        C  0.22092706  0.10508136  0.96764576    -0.06760
Co852      Co  0.19591397  0.00462291  0.90583243     0.73820
N853        N  0.19644415  0.08556821  0.83358526    -0.46950
C854        C  0.29691263  0.85797052  0.94893737     0.42530
N855        N  0.18206090  0.90083109  0.93445241    -0.46940
Co856      Co  0.24158372  0.00163227  0.85064296     0.73890
C857        C  0.28635131  0.92489003  0.82621771    -0.07270
C858        C  0.31250358  0.09920323  0.92655771    -0.06830
N859        N  0.21690150  0.94410080  0.95357807    -0.26360
N860        N  0.31870923  0.07378629  0.86266357    -0.47120
H861        H  0.32318130  0.87722983  0.91151955     0.06530
C862        C  0.16878802  0.92198994  0.87113811    -0.07240
Cl863      Cl  0.24549182  0.99982320  0.90191375    -0.50240
C864        C  0.17324863  0.10806248  0.84495853     0.42290
H865        H  0.22953586  0.88663819  0.98320154     0.06500
N866        N  0.19478107  0.92438405  0.83273968    -0.46950
C867        C  0.05999646  0.16571745  0.69480614     0.42140
N868        N  0.04072461  0.22241434  0.72111129     0.01030
C869        C  0.42278221  0.22572624  0.79941875    -0.06850
H870        H  0.40051191  0.25505606  0.71193478     0.06520
C871        C  0.46528769  0.41596378  0.70364496    -0.07200
Co872      Co  0.49119815  0.18320772  0.75227267     0.74180
N873        N  0.44176279  0.23456894  0.72557776    -0.26380
Co874      Co  0.44572056  0.29161063  0.75527117     0.74070
C875        C  0.44272896  0.39218481  0.68750579     0.42240
N876        N  0.02803691  0.37746427  0.72374940     0.00640
N877        N  0.44733396  0.35047960  0.72561166     0.00750
N878        N  0.44667725  0.14919790  0.79589942    -0.47220
H879        H  0.02645278  0.10314310  0.70561093     0.06510
N880        N  0.45704920  0.19095885  0.72440361     0.01040
N881        N  0.44947563  0.34623858  0.78689465     0.00780
C882        C  0.44798235  0.37852501  0.82762162     0.42380
N883        N  0.04510144  0.33674804  0.72245893    -0.25830
C884        C  0.03636593  0.13977436  0.79553494    -0.06750
N885        N  0.06223259  0.21397629  0.70521607    -0.46940
N886        N  0.43626289  0.34300662  0.81053508    -0.47160
C887        C  0.06389690  0.15978098  0.80489511     0.42150
N888        N  0.45957538  0.18806040  0.78250875     0.01020
N889        N  0.04830758  0.33216682  0.78235835    -0.25850
N890        N  0.02308462  0.18225840  0.72219635    -0.26350
N891        N  0.03084141  0.37193185  0.78510293     0.00660
H892        H  0.07882233  0.29671983  0.80862833     0.06550
H893        H  0.48513033  0.43361231  0.81886907     0.06590
N894        N  0.44469940  0.23205773  0.78347651    -0.26400
N895        N  0.46707370  0.38665317  0.72646810    -0.26010
N896        N  0.04437070  0.21740262  0.77923223     0.01030
C897        C  0.41894273  0.17453434  0.70180084     0.42420
C898        C  0.05821377  0.33693507  0.69840509    -0.07260
N899        N  0.46973993  0.38132889  0.78728661    -0.26010
H900        H  0.47996478  0.44615898  0.69764658     0.06570
N901        N  0.44350191  0.15288936  0.71088472    -0.47230
H902        H  0.07234849  0.30700062  0.69093531     0.06560
C903        C  0.05374458  0.36841372  0.82330861     0.42260
C904        C  0.03402895  0.14329949  0.70652171    -0.06760
Co905      Co  0.04475349  0.27771202  0.75123883     0.73820
N906        N  0.02789588  0.40493972  0.70065673    -0.46950
C907        C  0.42350099  0.17112765  0.80764110     0.42530
N908        N  0.06709516  0.20694895  0.79345064    -0.46940
Co909      Co  0.49896047  0.38155252  0.75578074     0.73890
C910        C  0.46985297  0.40516858  0.81187031    -0.07270
C911        C  0.41825335  0.22836643  0.71132592    -0.06830
N912        N  0.02552915  0.17912721  0.77989418    -0.26360
N913        N  0.43281254  0.35151837  0.70244317    -0.47120
H914        H  0.40540185  0.25320682  0.80018748     0.06530
C915        C  0.06411849  0.32811014  0.80479089    -0.07240
Cl916      Cl  0.49511262  0.28267040  0.75364067    -0.50240
C917        C  0.04660125  0.38161048  0.68379845     0.42290
H918        H  0.02738371  0.10093466  0.79803620     0.06500
N919        N  0.03294743  0.39404901  0.80964503    -0.46950
C920        C  0.03340443  0.61735028  0.68036754     0.42140
N921        N  0.03232020  0.65176653  0.72082711     0.01030
C922        C  0.42258659  0.67827039  0.80732828    -0.06850
H923        H  0.40504085  0.71775434  0.69701738     0.06520
C924        C  0.45033101  0.87185487  0.71448413    -0.07200
Co925      Co  0.48119723  0.62333760  0.75154635     0.74180
N926        N  0.43383354  0.67810221  0.72376209    -0.26380
Co927      Co  0.43891554  0.73221652  0.75440431     0.74070
C928        C  0.42202686  0.85576671  0.70502983     0.42240
N929        N  0.02675579  0.81089740  0.72459651     0.00640
N930        N  0.44238813  0.79091703  0.72543978     0.00750
N931        N  0.45213397  0.60913357  0.80797674    -0.47220
H932        H  0.99416394  0.56722669  0.68993377     0.06510
N933        N  0.45013658  0.63662655  0.72117054     0.01040
N934        N  0.44397394  0.78802721  0.78474240     0.00780
C935        C  0.42391294  0.85269911  0.80545301     0.42380
N936        N  0.04116218  0.76620609  0.72398704    -0.25830
C937        C  0.01323849  0.58591355  0.80436603    -0.06750
N938        N  0.04596828  0.65225315  0.69737205    -0.46940
N939        N  0.42157532  0.80201049  0.79838111    -0.47160
C940        C  0.03645283  0.60762372  0.82038507     0.42150
N941        N  0.45206474  0.63255264  0.78363322     0.01020
N942        N  0.04211972  0.76342741  0.78210818    -0.25850
N943        N  0.01091355  0.61916258  0.72048680    -0.26350
N944        N  0.02800517  0.80844575  0.78235108     0.00660
H945        H  0.08233226  0.73948656  0.79687157     0.06550
H946        H  0.46000437  0.90872160  0.79356384     0.06590
N947        N  0.43577882  0.67437814  0.78349035    -0.26400
N948        N  0.46152763  0.82842037  0.72650045    -0.26010
N949        N  0.03345795  0.64853138  0.78201562     0.01030
C950        C  0.42817118  0.64426495  0.68248434     0.42420
C951        C  0.06333517  0.77163300  0.70797591    -0.07260
N952        N  0.46282215  0.82601384  0.78316589    -0.26010
H953        H  0.45902241  0.91113255  0.71599851     0.06570
N954        N  0.44797695  0.61588103  0.69624749    -0.47230
H955        H  0.08048392  0.74374005  0.70652360     0.06560
C956        C  0.06695824  0.82398087  0.80343190     0.42260
C957        C  0.01034460  0.59426756  0.69621399    -0.06760
Co958      Co  0.03745445  0.70661738  0.75230199     0.73820
N959        N  0.03984813  0.84892065  0.71092561    -0.46950
C960        C  0.43403377  0.63612081  0.82418333     0.42530
N961        N  0.04790711  0.64625746  0.80516657    -0.46940
Co962      Co  0.49502593  0.81972183  0.75414372     0.73890
C963        C  0.45177763  0.86914925  0.79541543    -0.07270
C964        C  0.41858261  0.68462490  0.70111475    -0.06830
N965        N  0.01247879  0.61488266  0.78132786    -0.26360
N966        N  0.41960763  0.80532934  0.71238148    -0.47120
H967        H  0.40941001  0.71088801  0.81313375     0.06530
C968        C  0.06571512  0.76855822  0.79641334    -0.07240
Cl969      Cl  0.48829110  0.72112516  0.75308360    -0.50240
C970        C  0.06255121  0.82583387  0.69926109     0.42290
H971        H  0.99785765  0.55702013  0.81042209     0.06500
N972        N  0.04273072  0.84642322  0.79440857    -0.46950
C973        C  0.36382161  0.93236799  0.83361421    -0.26640
C974        C  0.34109470  0.90565088  0.82095642    -0.14710
C975        C  0.34661695  0.87323594  0.79835700     0.35920
C976        C  0.37455973  0.86388224  0.79118141    -0.26080
C977        C  0.39734802  0.88336193  0.80679934    -0.15320
C978        C  0.39185572  0.92090540  0.82721700     0.37010
N979        N  0.41371038  0.94449250  0.84342781    -0.89570
H980        H  0.35991385  0.95921092  0.85038573     0.18120
H981        H  0.37842185  0.83560237  0.77515657     0.18110
N982        N  0.32495791  0.84570656  0.78363373    -0.88600
H983        H  0.41263461  0.98528761  0.84041081     0.35490
H984        H  0.43353151  0.93275209  0.83682387     0.40590
H985        H  0.30499700  0.85489077  0.79077328     0.40210
H986        H  0.32789289  0.80529534  0.78690560     0.35090
C987        C  0.14484551  0.85531014  0.80750196    -0.26640
C988        C  0.14446188  0.89609023  0.82652808    -0.14710
C989        C  0.11863200  0.92091423  0.83280940     0.35920
C990        C  0.09337025  0.89856805  0.82377973    -0.26080
C991        C  0.09357457  0.85297591  0.80782018    -0.15320
C992        C  0.11959879  0.83419145  0.79743877     0.37010
N993        N  0.12045267  0.79346000  0.77706337    -0.89570
H994        H  0.16474448  0.83802062  0.80164008     0.18120
H995        H  0.07360889  0.91542424  0.83036878     0.18110
N996        N  0.11794164  0.96830129  0.84873326    -0.88600
H997        H  0.14114736  0.78490090  0.77157770     0.35490
H998        H  0.11047918  0.80797917  0.75956436     0.40590
H999        H  0.10797333  0.99757853  0.83715916     0.40210
H1000       H  0.10570269  0.96133084  0.86599833     0.35090
C1001       C  0.37781261  0.17830292  0.82996940    -0.26640
C1002       C  0.39677663  0.14561571  0.81596206    -0.14710
C1003       C  0.38741392  0.09588822  0.80667606     0.35920
C1004       C  0.35917567  0.08106227  0.81132893    -0.26080
C1005       C  0.34022209  0.11572929  0.82421226    -0.15320
C1006       C  0.34976197  0.16477551  0.83350060     0.37010
N1007       N  0.33099370  0.20023493  0.84737735    -0.89570
H1008       H  0.38479179  0.21572427  0.83791845     0.18120
H1009       H  0.35221303  0.04171720  0.80593931     0.18110
N1010       N  0.40641716  0.06045797  0.79326593    -0.88600
H1011       H  0.34101415  0.23589224  0.85185077     0.35490
H1012       H  0.32592288  0.18331802  0.86614747     0.40590
H1013       H  0.41211313  0.07778971  0.77479550     0.40210
H1014       H  0.39626242  0.02514044  0.78835218     0.35090
C1015       C  0.10591984  0.10184230  0.80232874    -0.26640
C1016       C  0.08866911  0.13551822  0.81778053    -0.14710
C1017       C  0.10016821  0.16178615  0.84053924     0.35920
C1018       C  0.12863907  0.15557389  0.84680954    -0.26080
C1019       C  0.14604240  0.12160529  0.83181654    -0.15320
C1020       C  0.13443384  0.09351330  0.80954591     0.37010
N1021       N  0.15133478  0.05670903  0.79453092    -0.89570
H1022       H  0.09741475  0.08362563  0.78407824     0.18120
H1023       H  0.13722284  0.17631132  0.86431024     0.18110
N1024       N  0.08278663  0.19518304  0.85721232    -0.88600
H1025       H  0.13971529  0.04032181  0.77848383     0.35490
H1026       H  0.15638092  0.02551464  0.80765035     0.40590
H1027       H  0.07664090  0.22785334  0.84564421     0.40210
H1028       H  0.09421736  0.21005922  0.87377646     0.35090
C1029       C  0.36393519  0.93780226  0.67374041    -0.26640
C1030       C  0.34070898  0.90859067  0.68326703    -0.14710
C1031       C  0.34432111  0.87390458  0.70507677     0.35920
C1032       C  0.37154367  0.86394861  0.71459434    -0.26080
C1033       C  0.39547382  0.88606757  0.70191500    -0.15320
C1034       C  0.39141392  0.92614417  0.68231976     0.37010
N1035       N  0.41424906  0.95315222  0.66938392    -0.89570
H1036       H  0.36103018  0.96698963  0.65780640     0.18120
H1037       H  0.37413067  0.83374395  0.72994266     0.18110
N1038       N  0.32081983  0.84471983  0.71540869    -0.88600
H1039       H  0.41409605  0.94268072  0.64875508     0.35490
H1040       H  0.43358389  0.94136172  0.67732878     0.40590
H1041       H  0.30750877  0.87154815  0.72511135     0.40210
H1042       H  0.32736979  0.81759693  0.73020851     0.35090
C1043       C  0.10704502  0.87353367  0.70939679    -0.26640
C1044       C  0.08846524  0.85146749  0.69007651    -0.14710
C1045       C  0.09834115  0.83872080  0.66400415     0.35920
C1046       C  0.12650355  0.84743091  0.65775615    -0.26080
C1047       C  0.14528824  0.87046073  0.67657596    -0.15320
C1048       C  0.13546562  0.88355931  0.70285975     0.37010
N1049       N  0.15409876  0.90620939  0.72277483    -0.89570
H1050       H  0.09955688  0.88132590  0.72983045     0.18120
H1051       H  0.13372406  0.83742301  0.63746385     0.18110
N1052       N  0.07958742  0.81692825  0.64383747    -0.88600
H1053       H  0.14363634  0.91207480  0.74122853     0.35490
H1054       H  0.15987645  0.94354528  0.71579932     0.40590
H1055       H  0.07359371  0.77944677  0.65040104     0.40210
H1056       H  0.08991693  0.81152476  0.62528103     0.35090
C1057       C  0.37720863  0.18012601  0.67309085    -0.26640
C1058       C  0.39279467  0.14898212  0.69142576    -0.14710
C1059       C  0.37957031  0.10401291  0.70311584     0.35920
C1060       C  0.35130956  0.09271585  0.69623945    -0.26080
C1061       C  0.33582502  0.12523390  0.67834725    -0.15320
C1062       C  0.34911397  0.16987108  0.66694844     0.37010
N1063       N  0.33491695  0.20523235  0.64840729    -0.89570
H1064       H  0.38674416  0.21485333  0.66412500     0.18120
H1065       H  0.34179718  0.05692574  0.70397879     0.18110
N1066       N  0.39354741  0.06935543  0.72203144    -0.88600
H1067       H  0.33540650  0.24290240  0.65708558     0.35490
H1068       H  0.31367876  0.19594809  0.64630226     0.40590
H1069       H  0.41441400  0.07995722  0.72497889     0.40210
H1070       H  0.39393753  0.03171369  0.71332598     0.35090
C1071       C  0.09888858  0.09968222  0.69903518    -0.26640
C1072       C  0.08630635  0.14197933  0.68498464    -0.14710
C1073       C  0.10277783  0.17298814  0.66728381     0.35920
C1074       C  0.13135084  0.16203520  0.66436115    -0.26080
C1075       C  0.14405722  0.11986037  0.67808636    -0.15320
C1076       C  0.12767350  0.08781254  0.69540375     0.37010
N1077       N  0.14001665  0.04245185  0.70833350    -0.89570
H1078       H  0.08658448  0.07719907  0.71346052     0.18120
H1079       H  0.14359863  0.18499387  0.65004253     0.18110
N1080       N  0.09037915  0.21688402  0.65293340    -0.88600
H1081       H  0.12503578  0.02250433  0.71993047     0.35490
H1082       H  0.15531579  0.05596149  0.72200342     0.40590
H1083       H  0.07534691  0.20177993  0.63943377     0.40210
H1084       H  0.10533041  0.23633905  0.64108348     0.35090
C1085       C  0.29839343  0.71824397  0.57564936    -0.26640
C1086       C  0.29040489  0.69295686  0.55129392    -0.14710
C1087       C  0.28481330  0.72458013  0.52822979     0.35920
C1088       C  0.28573189  0.77972762  0.52999422    -0.26080
C1089       C  0.29318287  0.80518348  0.55417470    -0.15320
C1090       C  0.29976116  0.77399254  0.57743324     0.37010
N1091       N  0.30723917  0.79859849  0.60285409    -0.89570
H1092       H  0.30339259  0.69444133  0.59339612     0.18120
H1093       H  0.28119963  0.80308190  0.51196632     0.18110
N1094       N  0.27974238  0.70061656  0.50241733    -0.88600
H1095       H  0.31231743  0.77013110  0.61753038     0.35490
H1096       H  0.28943296  0.81824020  0.61003204     0.40590
H1097       H  0.29862491  0.68289260  0.49679748     0.40210
H1098       H  0.27469346  0.72927344  0.98799853     0.35090
C1099       C  0.32033922  0.21909043  0.56186109    -0.26640
C1100       C  0.29447394  0.19425718  0.55680067    -0.14710
C1101       C  0.27064091  0.22620492  0.55268272     0.35920
C1102       C  0.27304178  0.28111966  0.55120211    -0.26080
C1103       C  0.29871168  0.30606649  0.55512069    -0.15320
C1104       C  0.32271928  0.27458384  0.56111295     0.37010
N1105       N  0.34983394  0.29735034  0.56554127    -0.89570
H1106       H  0.33888914  0.19531818  0.56563982     0.18120
H1107       H  0.25446139  0.30483988  0.54733159     0.18110
N1108       N  0.24359127  0.20286626  0.55093353    -0.88600
H1109       H  0.34879435  0.32199301  0.58258596     0.35490
H1110       H  0.35511286  0.31979510  0.54842923     0.40590
H1111       H  0.23940451  0.18644983  0.57001719     0.40210
H1112       H  0.22879986  0.23214943  0.54695922     0.35090
C1113       C  0.27284686  0.77287560  0.93756797    -0.26640
C1114       C  0.29654563  0.79942198  0.94796700    -0.14710
C1115       C  0.32106985  0.77028099  0.95393860     0.35920
C1116       C  0.32098208  0.71502689  0.95084848    -0.26080
C1117       C  0.29679761  0.68800087  0.94201425    -0.15320
C1118       C  0.27291697  0.71739466  0.93422893     0.37010
N1119       N  0.24930174  0.69093152  0.92222035    -0.89570
H1120       H  0.25447243  0.79554013  0.93165969     0.18120
H1121       H  0.33952789  0.69263690  0.95651694     0.18110
N1122       N  0.34573213  0.79677025  0.96393342    -0.88600
H1123       H  0.23344588  0.71801040  0.91743340     0.35490
H1124       H  0.24132261  0.66504980  0.93679027     0.40590
H1125       H  0.35327217  0.82065351  0.94822017     0.40210
H1126       H  0.36164282  0.76951668  0.96831005     0.35090
C1127       C  0.29727258  0.21833944  0.92385435    -0.26640
C1128       C  0.30141188  0.19084683  0.94848499    -0.14710
C1129       C  0.30455154  0.22011770  0.97271519     0.35920
C1130       C  0.30226577  0.27532392  0.97228710    -0.26080
C1131       C  0.29828987  0.30293099  0.94768913    -0.15320
C1132       C  0.29605752  0.27383892  0.92305802     0.37010
N1133       N  0.29188275  0.29886325  0.89700934    -0.89570
H1134       H  0.29460726  0.19652740  0.90502973     0.18120
H1135       H  0.30492058  0.29694692  0.99119648     0.18110
N1136       N  0.31114735  0.19460130  0.99789723    -0.88600
H1137       H  0.30981397  0.29186206  0.88535010     0.35490
H1138       H  0.28975109  0.33967853  0.89880806     0.40590
H1139       H  0.32999617  0.17395867  0.99552985     0.40210
H1140       H  0.29535666  0.16728527  0.50182198     0.35090
C1141       C  0.41490888  0.67095645  0.86807536    -0.26640
C1142       C  0.43305512  0.63534454  0.85481451    -0.14710
C1143       C  0.45005323  0.60194118  0.87122509     0.35920
C1144       C  0.44660480  0.60193811  0.89990008    -0.26080
C1145       C  0.42597213  0.63319773  0.91236618    -0.15320
C1146       C  0.41151633  0.67081791  0.89638221     0.37010
N1147       N  0.39154356  0.70689601  0.90807400    -0.89570
H1148       H  0.40210136  0.69830384  0.85655745     0.18120
H1149       H  0.45828099  0.57415517  0.91227063     0.18110
N1150       N  0.47001790  0.56697752  0.85888391    -0.88600
H1151       H  0.39831487  0.74515266  0.90363178     0.35490
H1152       H  0.39151480  0.70419668  0.92934156     0.40590
H1153       H  0.45869381  0.53887067  0.84779826     0.40210
H1154       H  0.48138289  0.54641450  0.87380337     0.35090
C1155       C  0.44470602  0.62900356  0.63430255    -0.26640
C1156       C  0.42361577  0.64589542  0.65228352    -0.14710
C1157       C  0.39866775  0.66735459  0.64103941     0.35920
C1158       C  0.39518052  0.66915723  0.61265519    -0.26080
C1159       C  0.41401613  0.64350505  0.59509008    -0.15320
C1160       C  0.43977158  0.62557294  0.60583200     0.37010
N1161       N  0.45998795  0.60150364  0.58816993    -0.89570
H1162       H  0.46475163  0.61784698  0.64263485     0.18120
H1163       H  0.37564486  0.68454514  0.60438236     0.18110
N1164       N  0.37613789  0.68456071  0.65831887    -0.88600
H1165       H  0.47726577  0.58841736  0.59944521     0.35490
H1166       H  0.46725664  0.63069687  0.57490802     0.40590
H1167       H  0.36858766  0.65140290  0.66861848     0.40210
H1168       H  0.35935657  0.69943214  0.64678825     0.35090
C1169       C  0.42433424  0.34120694  0.89957063    -0.26640
C1170       C  0.43325369  0.38473538  0.91487661    -0.14710
C1171       C  0.44893230  0.42448780  0.90167828     0.35920
C1172       C  0.45485292  0.42030447  0.87369503    -0.26080
C1173       C  0.44404427  0.37867634  0.85790243    -0.15320
C1174       C  0.42919864  0.33809306  0.87139064     0.37010
N1175       N  0.41790037  0.29444116  0.85652964    -0.89570
H1176       H  0.41135429  0.31140391  0.90911155     0.18120
H1177       H  0.46667368  0.45139780  0.86402117     0.18110
N1178       N  0.45744020  0.47127369  0.91575514    -0.88600
H1179       H  0.39616457  0.29447114  0.85938713     0.35490
H1180       H  0.42607823  0.25969581  0.86493697     0.40590
H1181       H  0.46992084  0.46043604  0.93243866     0.40210
H1182       H  0.43947804  0.49027068  0.92301082     0.35090
C1183       C  0.42950544  0.44963591  0.61670221    -0.26640
C1184       C  0.42710976  0.40375347  0.60073739    -0.14710
C1185       C  0.43163888  0.35423606  0.61308508     0.35920
C1186       C  0.43765675  0.35149577  0.64127676    -0.26080
C1187       C  0.43862928  0.39726379  0.65750163    -0.15320
C1188       C  0.43493386  0.44691445  0.64496669     0.37010
N1189       N  0.43412421  0.49395346  0.66129571    -0.89570
H1190       H  0.42492903  0.48756440  0.60742068     0.18120
H1191       H  0.44076684  0.31331751  0.65080238     0.18110
N1192       N  0.42920370  0.30686734  0.59713064    -0.88600
H1193       H  0.42857590  0.52647946  0.64931962     0.35490
H1194       H  0.45443019  0.50113988  0.66844135     0.40590
H1195       H  0.40828855  0.30344054  0.59080075     0.40210
H1196       H  0.43353455  0.27371087  0.60915245     0.35090
C1197       C  0.17575834  0.72531239  0.93698829    -0.26640
C1198       C  0.19058409  0.69862047  0.95780476    -0.14710
C1199       C  0.20448631  0.72953365  0.97787195     0.35920
C1200       C  0.20305413  0.78456339  0.97684284    -0.26080
C1201       C  0.18915774  0.81114272  0.95578501    -0.15320
C1202       C  0.17518880  0.78100467  0.93562087     0.37010
N1203       N  0.16073852  0.80641774  0.91353307    -0.89570
H1204       H  0.16484930  0.70288285  0.92140062     0.18120
H1205       H  0.21328955  0.80677266  0.99286444     0.17930
N1206       N  0.21985318  0.70570999  0.99975249    -0.88600
H1207       H  0.13977882  0.79427162  0.91382442     0.35490
H1208       H  0.16961351  0.79342357  0.89526317     0.40590
H1209       H  0.20529857  0.68514494  0.01110018     0.40210
H1210       H  0.22796560  0.73415977  0.51303823     0.35090
C1211       C  0.21482573  0.28660775  0.97022648    -0.26640
C1212       C  0.19757022  0.31293016  0.95132735    -0.14710
C1213       C  0.18248595  0.28175833  0.93220708     0.35920
C1214       C  0.18392405  0.22624518  0.93358605    -0.26080
C1215       C  0.20015061  0.20000635  0.95362912    -0.15320
C1216       C  0.21602724  0.23178628  0.97180343     0.37010
N1217       N  0.23349636  0.21041913  0.99266693    -0.89570
H1218       H  0.22726899  0.30832511  0.98487239     0.18120
H1219       H  0.17198807  0.20354407  0.91883233     0.18110
N1220       N  0.16564118  0.30488216  0.91108470    -0.88600
H1221       H  0.25036279  0.19143881  0.48348676     0.35490
H1222       H  0.22151758  0.18448352  0.00430410     0.40590
H1223       H  0.17809170  0.33102693  0.89995865     0.40210
H1224       H  0.14922234  0.32565531  0.92010686     0.35090
C1225       C  0.16724716  0.77614514  0.54011898    -0.26640
C1226       C  0.18796155  0.80453661  0.55408711    -0.14710
C1227       C  0.20710332  0.77723990  0.57114007     0.35920
C1228       C  0.20605231  0.72171510  0.57270757    -0.26080
C1229       C  0.18549410  0.69309329  0.55849919    -0.15320
C1230       C  0.16563193  0.72095190  0.54206583     0.37010
N1231       N  0.14458539  0.69483866  0.52583282    -0.89570
H1232       H  0.15216423  0.79708280  0.52747031     0.18120
H1233       H  0.22110729  0.70069593  0.58534485     0.18110
N1234       N  0.22664226  0.80620698  0.58776678    -0.88600
H1235       H  0.12498483  0.70438389  0.53397217     0.35490
H1236       H  0.14649436  0.65391393  0.52635491     0.40590
H1237       H  0.24010382  0.82638412  0.57474401     0.40210
H1238       H  0.23909870  0.78044569  0.59931601     0.35090
C1239       C  0.18675521  0.27632050  0.57964652    -0.26640
C1240       C  0.18157068  0.30318644  0.55516772    -0.14710
C1241       C  0.17297377  0.27366175  0.53196585     0.35920
C1242       C  0.17332720  0.21809619  0.53307717    -0.26080
C1243       C  0.18063659  0.19089863  0.55705654    -0.15320
C1244       C  0.18681025  0.22089410  0.58105486     0.37010
N1245       N  0.19537225  0.19738218  0.60657907    -0.89570
H1246       H  0.19212583  0.29873621  0.59777076     0.18120
H1247       H  0.16771743  0.19589047  0.51495825     0.18110
N1248       N  0.16285167  0.29819432  0.50732940    -0.88600
H1249       H  0.21441644  0.21459178  0.61244339     0.35490
H1250       H  0.20024004  0.15762143  0.60445221     0.40590
H1251       H  0.16160017  0.33906890  0.50917503     0.40210
H1252       H  0.14224558  0.28539811  0.50408920     0.35090
C1253       C  0.05175038  0.55586264  0.86080337    -0.26640
C1254       C  0.04077811  0.60287038  0.85028272    -0.14710
C1255       C  0.03567168  0.64562474  0.86818992     0.35920
C1256       C  0.04387277  0.64176773  0.89589045    -0.26080
C1257       C  0.05705759  0.59615898  0.90588429    -0.15320
C1258       C  0.06020502  0.55224538  0.88829246     0.37010
N1259       N  0.07370770  0.50520046  0.89811452    -0.89570
H1260       H  0.05518122  0.52282524  0.84717847     0.18120
H1261       H  0.04148268  0.67547350  0.90926640     0.18110
N1262       N  0.02225985  0.69275795  0.85821322    -0.88600
H1263       H  0.07514506  0.47698511  0.88264347     0.35490
H1264       H  0.06095379  0.48954341  0.91334770     0.40590
H1265       H  0.03621715  0.71157561  0.84505872     0.40210
H1266       H  0.51864914  0.71908668  0.87423364     0.35090
C1267       C  0.03483425  0.58138912  0.60385187    -0.26640
C1268       C  0.05352301  0.61942806  0.59393522    -0.14710
C1269       C  0.06331029  0.65895000  0.61192057     0.35920
C1270       C  0.05542522  0.65774513  0.63941328    -0.26080
C1271       C  0.03817385  0.61770003  0.65006332    -0.15320
C1272       C  0.02713317  0.57961183  0.63166051     0.37010
N1273       N  0.01042211  0.53632992  0.64126754    -0.89570
H1274       H  0.02803313  0.55012084  0.59028121     0.18120
H1275       H  0.06388175  0.68775960  0.65280837     0.18110
N1276       N  0.08216331  0.69985186  0.60321475    -0.88600
H1277       H  0.50684430  0.50906801  0.62563784     0.35490
H1278       H  0.99068246  0.55055973  0.64618368     0.40590
H1279       H  0.08559653  0.69853599  0.58220465     0.40210
H1280       H  0.10151766  0.69349379  0.61285977     0.35090
C1281       C  0.08404345  0.34021919  0.89383471    -0.26640
C1282       C  0.06576723  0.36779276  0.91106878    -0.14710
C1283       C  0.04064770  0.38842038  0.89961415     0.35920
C1284       C  0.03705345  0.38837207  0.87096710    -0.26080
C1285       C  0.05783488  0.36789754  0.85354981    -0.15320
C1286       C  0.08168663  0.34351679  0.86543536     0.37010
N1287       N  0.10458837  0.32544766  0.84887505    -0.89570
H1288       H  0.10275111  0.32242341  0.90251610     0.18120
H1289       H  0.01806208  0.40518912  0.86232311     0.18110
N1290       N  0.01865427  0.41014495  0.91603089    -0.88600
H1291       H  0.12047519  0.30843535  0.86080383     0.35490
H1292       H  0.11335942  0.35852081  0.83946212     0.40590
H1293       H  0.02276515  0.40469050  0.93671151     0.40210
H1294       H  0.50087335  0.38722499  0.91221731     0.35090
C1295       C  0.05477545  0.43969957  0.61288710    -0.26640
C1296       C  0.05391267  0.39414260  0.59646030    -0.14710
C1297       C  0.04785148  0.34517256  0.60881428     0.35920
C1298       C  0.04394609  0.34290750  0.63720450    -0.26080
C1299       C  0.04706465  0.38798298  0.65378363    -0.15320
C1300       C  0.05287595  0.43690420  0.64138113     0.37010
N1301       N  0.05956831  0.48341337  0.65692861    -0.89570
H1302       H  0.06078277  0.47697092  0.60379417     0.18120
H1303       H  0.03978411  0.30496307  0.64654385     0.18110
N1304       N  0.04742721  0.29671401  0.59357867    -0.88600
H1305       H  0.08035453  0.49359952  0.65270874     0.35490
H1306       H  0.05851998  0.47710155  0.67790568     0.40590
H1307       H  0.05015246  0.30374864  0.57276773     0.40210
H1308       H  0.02739207  0.28043634  0.59556667     0.35090
C1309       C  0.56986485  0.39709801  0.07073848     0.42140
N1310       N  0.60242439  0.44246511  0.05139025     0.01030
C1311       C  0.60282577  0.58646008  0.43175862    -0.06850
H1312       H  0.62155500  0.41045208  0.41653561     0.06520
C1313       C  0.70650691  0.40306308  0.47627878    -0.07200
Co1314     Co  0.58309223  0.49961952  0.00120504     0.74180
N1315       N  0.60992158  0.44495172  0.45438685    -0.26380
Co1316     Co  0.63998126  0.50305863  0.45660228     0.74070
C1317       C  0.69457077  0.37166361  0.45397066     0.42240
N1318       N  0.68423302  0.43977349  0.03762452     0.00640
N1319       N  0.67132784  0.44466868  0.45855718     0.00750
N1320       N  0.56322524  0.57686669  0.45587067    -0.47220
H1321       H  0.53875810  0.41768428  0.03602761     0.06510
N1322       N  0.58722476  0.44279531  0.46971474     0.01040
N1323       N  0.66945757  0.56339512  0.46029482     0.00780
C1324       C  0.69005242  0.63928949  0.45878545     0.42380
N1325       N  0.66339931  0.44119604  0.05514263    -0.25830
C1326       C  0.56005234  0.58549526  0.04277283    -0.06750
N1327       N  0.59624164  0.41463102  0.07315592    -0.46940
N1328       N  0.66905378  0.60996871  0.44785099    -0.47160
C1329       C  0.56987767  0.60648021  0.06926497     0.42150
N1330       N  0.58501551  0.55564873  0.46908424     0.01020
N1331       N  0.66331227  0.55802584  0.05627961    -0.25850
N1332       N  0.58175339  0.44423445  0.03336119    -0.26350
N1333       N  0.68467830  0.55893334  0.03944823     0.00660
H1334       H  0.64649939  0.61537932  0.08436042     0.06550
H1335       H  0.72131378  0.61213559  0.49222590     0.06590
N1336       N  0.60799104  0.55824918  0.45419410    -0.26400
N1337       N  0.69014326  0.44571633  0.47819043    -0.26010
N1338       N  0.60174763  0.55683853  0.05173688     0.01030
C1339       C  0.57958676  0.38931179  0.43608163     0.42420
C1340       C  0.66188256  0.39469343  0.06808812    -0.07260
N1341       N  0.68885933  0.56059374  0.47940397    -0.26010
H1342       H  0.72303141  0.39333369  0.49057518     0.06570
N1343       N  0.56781682  0.41134438  0.45868410    -0.47230
H1344       H  0.64550729  0.38264303  0.08185444     0.06560
C1345       C  0.68596654  0.63456557  0.06001064     0.42260
C1346       C  0.55995184  0.41726979  0.04406247    -0.06760
Co1347     Co  0.63303269  0.49980325  0.05390898     0.73820
N1348       N  0.69609418  0.39223239  0.03671162    -0.46950
C1349       C  0.57292240  0.59781849  0.43213607     0.42530
N1350       N  0.59559293  0.58617384  0.07305045    -0.46940
Co1351     Co  0.68802305  0.50120704  0.50880100     0.73890
C1352       C  0.70406892  0.60465466  0.47868647    -0.07270
C1353       C  0.60739999  0.41180283  0.43370005    -0.06830
N1354       N  0.58143800  0.55583251  0.03317674    -0.26360
N1355       N  0.67283630  0.40058017  0.44395850    -0.47120
H1356       H  0.61653071  0.58738145  0.41423625     0.06530
C1357       C  0.66285606  0.60319552  0.07054516    -0.07240
Cl1358     Cl  0.63566873  0.50117379  0.00509712    -0.50240
C1359       C  0.68308711  0.36180098  0.05556103     0.42290
H1360       H  0.53921996  0.58741240  0.03393086     0.06500
N1361       N  0.69839064  0.60439832  0.04070006    -0.46950
C1362       C  0.79929231  0.36408922  0.05092252     0.42140
N1363       N  0.81629347  0.44202816  0.04749066     0.01030
C1364       C  0.82022905  0.59766285  0.43345377    -0.06850
H1365       H  0.83941327  0.37983883  0.42369484     0.06520
C1366       C  0.92662380  0.42040171  0.46586999    -0.07200
Co1367     Co  0.79672658  0.49791686  0.49716134     0.74180
N1368       N  0.82264398  0.43793629  0.45144161    -0.26380
Co1369     Co  0.85208786  0.49837096  0.45258665     0.74070
C1370       C  0.91720114  0.39649710  0.43985282     0.42240
N1371       N  0.90011894  0.45292094  0.03856830     0.00640
N1372       N  0.88416487  0.44411031  0.45669791     0.00750
N1373       N  0.78480847  0.60092594  0.46341577    -0.47220
H1374       H  0.76937276  0.37779903  0.01476823     0.06510
N1375       N  0.80112613  0.43753232  0.46813407     0.01040
N1376       N  0.88187327  0.55790803  0.45397883     0.00780
C1377       C  0.91141269  0.61203280  0.43650839     0.42380
N1378       N  0.87716374  0.45079328  0.05346619    -0.25830
C1379       C  0.77836534  0.60118195  0.02755935    -0.06750
N1380       N  0.81852644  0.39730816  0.06135680    -0.46940
N1381       N  0.88693787  0.58732569  0.43246177    -0.47160
C1382       C  0.79048781  0.63388849  0.04945286     0.42150
N1383       N  0.79918317  0.55607405  0.46603343     0.01020
N1384       N  0.87303805  0.56379750  0.05109190    -0.25850
N1385       N  0.79728220  0.44006448  0.02789268    -0.26350
N1386       N  0.89618802  0.56610924  0.03649097     0.00660
H1387       H  0.85938753  0.59976571  0.08784426     0.06550
H1388       H  0.94227936  0.60003182  0.47256741     0.06590
N1389       N  0.82050830  0.55433464  0.44910237    -0.26400
N1390       N  0.90457213  0.44892528  0.47496990    -0.26010
N1391       N  0.81244472  0.55937933  0.04666085     0.01030
C1392       C  0.79973634  0.36151996  0.44816086     0.42420
C1393       C  0.88202938  0.42180247  0.07564672    -0.07260
N1394       N  0.90181336  0.56099030  0.47281110    -0.26010
H1395       H  0.94751890  0.42108483  0.47460998     0.06570
N1396       N  0.78735923  0.39203912  0.46730098    -0.47230
H1397       H  0.86819940  0.41985385  0.09304840     0.06560
C1398       C  0.90155951  0.62218374  0.06947655     0.42260
C1399       C  0.78462985  0.39280415  0.02915259    -0.06760
Co1400     Co  0.84440280  0.50377999  0.04979381     0.73820
N1401       N  0.92164289  0.42978914  0.05131976    -0.46950
C1402       C  0.79673041  0.62921644  0.44289490     0.42530
N1403       N  0.81126635  0.60438272  0.06043424    -0.46940
Co1404     Co  0.90157343  0.50742940  0.00583208     0.73890
C1405       C  0.92194624  0.59364033  0.46322526    -0.07270
C1406       C  0.82318627  0.39218500  0.43763746    -0.06830
N1407       N  0.79401859  0.55722552  0.02666921    -0.26360
N1408       N  0.89086793  0.41351967  0.43608057    -0.47120
H1409       H  0.83620893  0.60867715  0.41900297     0.06530
C1410       C  0.87412452  0.59848105  0.07114912    -0.07240
Cl1411     Cl  0.84900347  0.50203063  0.00128085    -0.50240
C1412       C  0.91147964  0.40778070  0.07460829     0.42290
H1413       H  0.76236373  0.61122168  0.01292944     0.06500
N1414       N  0.91473162  0.59912454  0.04780796    -0.46950
C1415       C  0.66994272  0.10023342  0.16553551     0.42140
N1416       N  0.69054044  0.05237703  0.13587404     0.01030
C1417       C  0.81520606  0.91765117  0.13803067    -0.06850
H1418       H  0.83165097  0.08658594  0.12365115     0.06520
C1419       C  0.77010321  0.10497789  0.04160091    -0.07200
Co1420     Co  0.74221913  0.99837268  0.15630240     0.74180
N1421       N  0.79120606  0.05486243  0.13272830    -0.26380
Co1422     Co  0.78988139  0.99886305  0.10266338     0.74070
C1423       C  0.79215228  0.13544998  0.05558096     0.42240
N1424       N  0.70619602  0.05864188  0.05694529     0.00640
N1425       N  0.78846535  0.05825896  0.07362292     0.00750
N1426       N  0.78927578  0.92478017  0.17617062    -0.47220
H1427       H  0.70489886  0.08417619  0.19746510     0.06510
N1428       N  0.77495983  0.05538581  0.15451367     0.01040
N1429       N  0.78839962  0.94044514  0.07322797     0.00780
C1430       C  0.79179530  0.86398294  0.05450099     0.42380
N1431       N  0.68748680  0.05446027  0.07644238    -0.25830
C1432       C  0.69844847  0.91105771  0.17644696    -0.06750
N1433       N  0.66779434  0.08004291  0.14054184    -0.46940
N1434       N  0.80193276  0.89476144  0.07466727    -0.47160
C1435       C  0.67199167  0.88977034  0.16473442     0.42150
N1436       N  0.77546053  0.94378218  0.15466990     0.01020
N1437       N  0.68944427  0.93897777  0.07586027    -0.25850
N1438       N  0.70856265  0.05261426  0.15651564    -0.26350
N1439       N  0.70758442  0.93913828  0.05576413     0.00660
H1440       H  0.66022976  0.88080794  0.09064251     0.06550
H1441       H  0.75620922  0.88313077  0.02439188     0.06590
N1442       N  0.79132786  0.94258878  0.13264577    -0.26400
N1443       N  0.76868254  0.05879114  0.05480461    -0.26010
N1444       N  0.69237490  0.93935368  0.13536421     0.01030
C1445       C  0.81082170  0.10390644  0.16420298     0.42420
C1446       C  0.67102346  0.09732058  0.07653751    -0.07260
N1447       N  0.76918927  0.94144658  0.05384756    -0.26010
H1448       H  0.75558241  0.11790008  0.02606203     0.06570
N1449       N  0.78694213  0.08267419  0.17476593    -0.47230
H1450       H  0.65514143  0.10624911  0.09148704     0.06560
C1451       C  0.68714551  0.86295887  0.05348006     0.42260
C1452       C  0.69695493  0.08142509  0.17680359    -0.06760
Co1453     Co  0.68992412  0.99622128  0.10569553     0.73820
N1454       N  0.70449921  0.10539044  0.04463066    -0.46950
C1455       C  0.81455834  0.90783903  0.16700120     0.42530
N1456       N  0.67043785  0.90951813  0.13954733    -0.46940
Co1457     Co  0.73794270  0.99980918  0.05407005     0.73890
C1458       C  0.77062560  0.89570096  0.04011492    -0.07270
C1459       C  0.81344467  0.08524972  0.13672663    -0.06830
N1460       N  0.70978600  0.94113242  0.15642612    -0.26360
N1461       N  0.80260291  0.10328377  0.07504427    -0.47120
H1462       H  0.83342668  0.91896953  0.12497349     0.06530
C1463       C  0.67515153  0.89354340  0.07552069    -0.07240
Cl1464     Cl  0.73999448  0.99850798  0.10479866    -0.50240
C1465       C  0.68274430  0.13216897  0.05609719     0.42290
H1466       H  0.70614711  0.90883253  0.19721104     0.06500
N1467       N  0.70747360  0.89349801  0.04239655    -0.46950
C1468       C  0.70064833  0.14052551  0.45410089     0.42140
N1469       N  0.70023330  0.06326146  0.43519209     0.01030
C1470       C  0.80918408  0.88975284  0.42752748    -0.06850
H1471       H  0.82616710  0.11079355  0.41013783     0.06520
C1472       C  0.78709523  0.08083460  0.32840649    -0.07200
Co1473     Co  0.74926925  0.99865772  0.45266029     0.74180
N1474       N  0.79848168  0.05342087  0.42830746    -0.26380
Co1475     Co  0.79526072  0.99443991  0.39921293     0.74070
C1476       C  0.81556490  0.09420605  0.33783265     0.42240
N1477       N  0.70979379  0.06004584  0.35366268     0.00640
N1478       N  0.79506629  0.05043818  0.36893792     0.00750
N1479       N  0.77733465  0.88875996  0.46114781    -0.47220
H1480       H  0.73600229  0.11217051  0.48344418     0.06510
N1481       N  0.78152482  0.05539141  0.44935817     0.01040
N1482       N  0.79134382  0.93788484  0.36937429     0.00780
C1483       C  0.81390584  0.90492810  0.33557166     0.42380
N1484       N  0.69502306  0.06152990  0.37634433    -0.25830
C1485       C  0.71477967  0.89935019  0.46779908    -0.06750
N1486       N  0.68845975  0.11073940  0.43442962    -0.46940
N1487       N  0.81454595  0.91347364  0.36243834    -0.47160
C1488       C  0.69210921  0.86964345  0.45464047     0.42150
N1489       N  0.77808459  0.93578162  0.44906430     0.01020
N1490       N  0.69217176  0.94912879  0.37545406    -0.25850
N1491       N  0.72012058  0.05984975  0.45371481    -0.26350
N1492       N  0.70792951  0.94815294  0.35333891     0.00660
H1493       H  0.65096644  0.92167246  0.38470065     0.06550
H1494       H  0.77957320  0.93292965  0.30553078     0.06590
N1495       N  0.79584712  0.93624052  0.42866252    -0.26400
N1496       N  0.77581531  0.05364650  0.34941046    -0.26010
N1497       N  0.69696711  0.94500178  0.43494968     0.01030
C1498       C  0.80186660  0.13195677  0.44855498     0.42420
C1499       C  0.67291980  0.09257414  0.37319968    -0.07260
N1500       N  0.77366888  0.94421210  0.34869100    -0.26010
H1501       H  0.77811377  0.08432696  0.30817245     0.06570
N1502       N  0.78265686  0.10204077  0.46170317    -0.47230
H1503       H  0.65544587  0.09387211  0.38719617     0.06560
C1504       C  0.66994554  0.90702596  0.34275935     0.42260
C1505       C  0.72092704  0.10508135  0.46764574    -0.06760
Co1506     Co  0.69591396  0.00462289  0.40583242     0.73820
N1507       N  0.69644415  0.08556822  0.33358525    -0.46950
C1508       C  0.79691261  0.85797051  0.44893737     0.42530
N1509       N  0.68206089  0.90083107  0.43445240    -0.46940
Co1510     Co  0.74158371  0.00163226  0.35064295     0.73890
C1511       C  0.78635131  0.92489003  0.32621770    -0.07270
C1512       C  0.81250356  0.09920322  0.42655770    -0.06830
N1513       N  0.71690149  0.94410078  0.45357806    -0.26360
N1514       N  0.81870922  0.07378628  0.36266356    -0.47120
H1515       H  0.82318128  0.87722981  0.41151955     0.06530
C1516       C  0.66878802  0.92198991  0.37113809    -0.07240
Cl1517     Cl  0.74549180  0.99982318  0.40191374    -0.50240
C1518       C  0.67324863  0.10806249  0.34495852     0.42290
H1519       H  0.72953584  0.88663816  0.48320153     0.06500
N1520       N  0.69478107  0.92438404  0.33273967    -0.46950
C1521       C  0.55999645  0.16571747  0.19480615     0.42140
N1522       N  0.54072460  0.22241438  0.22111129     0.01030
C1523       C  0.92278220  0.22572626  0.29941875    -0.06850
H1524       H  0.90051191  0.25505608  0.21193477     0.06520
C1525       C  0.96528771  0.41596377  0.20364495    -0.07200
Co1526     Co  0.99119815  0.18320772  0.25227267     0.74180
N1527       N  0.94176279  0.23456895  0.22557776    -0.26380
Co1528     Co  0.94572057  0.29161064  0.25527116     0.74070
C1529       C  0.94272898  0.39218479  0.18750578     0.42240
N1530       N  0.52803692  0.37746432  0.22374940     0.00640
N1531       N  0.94733397  0.35047961  0.22561165     0.00750
N1532       N  0.94667723  0.14919791  0.29589942    -0.47220
H1533       H  0.52645277  0.10314314  0.20561096     0.06510
N1534       N  0.95704920  0.19095885  0.22440361     0.01040
N1535       N  0.94947563  0.34623859  0.28689464     0.00780
C1536       C  0.94798235  0.37852503  0.32762161     0.42380
N1537       N  0.54510145  0.33674808  0.22245893    -0.25830
C1538       C  0.53636593  0.13977444  0.29553496    -0.06750
N1539       N  0.56223259  0.21397632  0.20521608    -0.46940
N1540       N  0.93626289  0.34300664  0.31053507    -0.47160
C1541       C  0.56389691  0.15978106  0.30489513     0.42150
N1542       N  0.95957537  0.18806041  0.28250875     0.01020
N1543       N  0.54830760  0.33216689  0.28235834    -0.25850
N1544       N  0.52308462  0.18225844  0.22219637    -0.26350
N1545       N  0.53084143  0.37193191  0.28510292     0.00660
H1546       H  0.57882235  0.29671990  0.30862832     0.06550
H1547       H  0.98513034  0.43361232  0.31886907     0.06590
N1548       N  0.94469940  0.23205775  0.28347651    -0.26400
N1549       N  0.96707372  0.38665317  0.22646809    -0.26010
N1550       N  0.54437070  0.21740269  0.27923224     0.01030
C1551       C  0.91894272  0.17453434  0.20180084     0.42420
C1552       C  0.55821378  0.33693509  0.19840508    -0.07260
N1553       N  0.96973993  0.38132889  0.28728660    -0.26010
H1554       H  0.97996480  0.44615897  0.19764657     0.06570
N1555       N  0.94350190  0.15288936  0.21088472    -0.47230
H1556       H  0.57234849  0.30700064  0.19093530     0.06560
C1557       C  0.55374460  0.36841378  0.32330860     0.42260
C1558       C  0.53402894  0.14329952  0.20652173    -0.06760
Co1559     Co  0.54475350  0.27771207  0.25123883     0.73820
N1560       N  0.52789589  0.40493975  0.20065672    -0.46950
C1561       C  0.92350097  0.17112767  0.30764109     0.42530
N1562       N  0.56709517  0.20694902  0.29345065    -0.46940
Co1563     Co  0.99896048  0.38155251  0.25578073     0.73890
C1564       C  0.96985297  0.40516859  0.31187030    -0.07270
C1565       C  0.91825336  0.22836644  0.21132591    -0.06830
N1566       N  0.52552916  0.17912729  0.27989420    -0.26360
N1567       N  0.93281255  0.35151837  0.20244316    -0.47120
H1568       H  0.90540184  0.25320684  0.30018747     0.06530
C1569       C  0.56411851  0.32811021  0.30479088    -0.07240
Cl1570     Cl  0.99511263  0.28267039  0.25364067    -0.50240
C1571       C  0.54660125  0.38161050  0.18379844     0.42290
H1572       H  0.52738370  0.10093474  0.29803623     0.06500
N1573       N  0.53294744  0.39404907  0.30964503    -0.46950
C1574       C  0.53340442  0.61735028  0.18036754     0.42140
N1575       N  0.53232019  0.65176653  0.22082710     0.01030
C1576       C  0.92258660  0.67827041  0.30732827    -0.06850
H1577       H  0.90504086  0.71775432  0.19701737     0.06520
C1578       C  0.95033101  0.87185487  0.21448412    -0.07200
Co1579     Co  0.98119724  0.62333760  0.25154635     0.74180
N1580       N  0.93383355  0.67810220  0.22376209    -0.26380
Co1581     Co  0.93891554  0.73221652  0.25440430     0.74070
C1582       C  0.92202687  0.85576670  0.20502982     0.42240
N1583       N  0.52675579  0.81089740  0.22459650     0.00640
N1584       N  0.94238814  0.79091702  0.22543976     0.00750
N1585       N  0.95213397  0.60913359  0.30797673    -0.47220
H1586       H  0.49416392  0.56722669  0.18993376     0.06510
N1587       N  0.95013659  0.63662654  0.22117054     0.01040
N1588       N  0.94397394  0.78802722  0.28474238     0.00780
C1589       C  0.92391293  0.85269913  0.30545299     0.42380
N1590       N  0.54116218  0.76620609  0.22398703    -0.25830
C1591       C  0.51323847  0.58591356  0.30436603    -0.06750
N1592       N  0.54596826  0.65225314  0.19737205    -0.46940
N1593       N  0.92157531  0.80201051  0.29838109    -0.47160
C1594       C  0.53645281  0.60762373  0.32038507     0.42150
N1595       N  0.95206474  0.63255265  0.28363322     0.01020
N1596       N  0.54211972  0.76342742  0.28210817    -0.25850
N1597       N  0.51091353  0.61916258  0.22048679    -0.26350
N1598       N  0.52800517  0.80844576  0.28235107     0.00660
H1599       H  0.58233225  0.73948656  0.29687156     0.06550
H1600       H  0.96000437  0.90872161  0.29356384     0.06590
N1601       N  0.93577882  0.67437815  0.28349034    -0.26400
N1602       N  0.96152763  0.82842037  0.22650044    -0.26010
N1603       N  0.53345793  0.64853139  0.28201561     0.01030
C1604       C  0.92817120  0.64426492  0.18248433     0.42420
C1605       C  0.56333516  0.77163299  0.20797590    -0.07260
N1606       N  0.96282214  0.82601385  0.28316587    -0.26010
H1607       H  0.95902241  0.91113255  0.21599850     0.06570
N1608       N  0.94797697  0.61588101  0.19624749    -0.47230
H1609       H  0.58048392  0.74374003  0.20652359     0.06560
C1610       C  0.56695823  0.82398088  0.30343188     0.42260
C1611       C  0.51034458  0.59426756  0.19621399    -0.06760
Co1612     Co  0.53745444  0.70661738  0.25230199     0.73820
N1613       N  0.53984813  0.84892064  0.21092560    -0.46950
C1614       C  0.93403376  0.63612082  0.32418332     0.42530
N1615       N  0.54790710  0.64625746  0.30516656    -0.46940
Co1616     Co  0.99502593  0.81972184  0.25414371     0.73890
C1617       C  0.95177763  0.86914926  0.29541542    -0.07270
C1618       C  0.91858262  0.68462488  0.20111474    -0.06830
N1619       N  0.51247878  0.61488267  0.28132785    -0.26360
N1620       N  0.91960764  0.80532932  0.21238146    -0.47120
H1621       H  0.90941001  0.71088803  0.31313374     0.06530
C1622       C  0.56571511  0.76855822  0.29641333    -0.07240
Cl1623     Cl  0.98829110  0.72112517  0.25308360    -0.50240
C1624       C  0.56255121  0.82583386  0.19926108     0.42290
H1625       H  0.49785764  0.55702014  0.31042209     0.06500
N1626       N  0.54273072  0.84642323  0.29440856    -0.46950
C1627       C  0.86382161  0.93236797  0.33361423    -0.26640
C1628       C  0.84109470  0.90565089  0.32095642    -0.14710
C1629       C  0.84661696  0.87323599  0.29835698     0.35920
C1630       C  0.87455973  0.86388230  0.29118139    -0.26080
C1631       C  0.89734802  0.88336196  0.30679933    -0.15320
C1632       C  0.89185572  0.92090539  0.32721701     0.37010
N1633       N  0.91371038  0.94449246  0.34342783    -0.89570
H1634       H  0.85991386  0.95921087  0.35038575     0.18120
H1635       H  0.87842185  0.83560247  0.27515653     0.18110
N1636       N  0.82495792  0.84570664  0.28363370    -0.88600
H1637       H  0.91263461  0.98528758  0.34041085     0.35490
H1638       H  0.93353151  0.93275206  0.33682388     0.40590
H1639       H  0.80499701  0.85489082  0.29077325     0.40210
H1640       H  0.82789290  0.80529541  0.28690555     0.35090
C1641       C  0.64484550  0.85531013  0.30750194    -0.26640
C1642       C  0.64446188  0.89609022  0.32652806    -0.14710
C1643       C  0.61863200  0.92091422  0.33280939     0.35920
C1644       C  0.59337024  0.89856805  0.32377971    -0.26080
C1645       C  0.59357457  0.85297591  0.30782016    -0.15320
C1646       C  0.61959879  0.83419145  0.29743875     0.37010
N1647       N  0.62045266  0.79346000  0.27706335    -0.89570
H1648       H  0.66474448  0.83802061  0.30164006     0.18120
H1649       H  0.57360889  0.91542424  0.33036877     0.18110
N1650       N  0.61794164  0.96830128  0.34873324    -0.88600
H1651       H  0.64114735  0.78490089  0.27157768     0.35490
H1652       H  0.61047917  0.80797917  0.25956435     0.40590
H1653       H  0.60797334  0.99757852  0.33715914     0.40210
H1654       H  0.60570269  0.96133083  0.36599832     0.35090
C1655       C  0.87781258  0.17830295  0.32996937    -0.26640
C1656       C  0.89677661  0.14561573  0.31596205    -0.14710
C1657       C  0.88741392  0.09588822  0.30667607     0.35920
C1658       C  0.85917567  0.08106226  0.31132894    -0.26080
C1659       C  0.84022208  0.11572928  0.32421226    -0.15320
C1660       C  0.84976195  0.16477552  0.33350057     0.37010
N1661       N  0.83099366  0.20023495  0.34737731    -0.89570
H1662       H  0.88479175  0.21572432  0.33791841     0.18120
H1663       H  0.85221304  0.04171718  0.30593934     0.18110
N1664       N  0.90641716  0.06045796  0.29326595    -0.88600
H1665       H  0.84101410  0.23589228  0.35185071     0.35490
H1666       H  0.82592284  0.18331807  0.36614743     0.40590
H1667       H  0.91211313  0.07778968  0.27479552     0.40210
H1668       H  0.89626243  0.02514042  0.28835222     0.35090
C1669       C  0.60591983  0.10184236  0.30232876    -0.26640
C1670       C  0.58866911  0.13551830  0.31778054    -0.14710
C1671       C  0.60016823  0.16178625  0.34053924     0.35920
C1672       C  0.62863909  0.15557397  0.34680953    -0.26080
C1673       C  0.64604240  0.12160533  0.33181653    -0.15320
C1674       C  0.63443383  0.09351334  0.30954592     0.37010
N1675       N  0.65133476  0.05670903  0.29453093    -0.89570
H1676       H  0.59741473  0.08362567  0.28407826     0.18120
H1677       H  0.63722287  0.17631140  0.36431023     0.18110
N1678       N  0.58278666  0.19518316  0.35721232    -0.88600
H1679       H  0.63971526  0.04032180  0.27848385     0.35490
H1680       H  0.65638089  0.02551465  0.30765036     0.40590
H1681       H  0.57664094  0.22785345  0.34564420     0.40210
H1682       H  0.59421741  0.21005935  0.37377645     0.35090
C1683       C  0.86393518  0.93780227  0.17374043    -0.26640
C1684       C  0.84070898  0.90859067  0.18326703    -0.14710
C1685       C  0.84432111  0.87390454  0.20507676     0.35920
C1686       C  0.87154367  0.86394856  0.21459432    -0.26080
C1687       C  0.89547381  0.88606754  0.20191499    -0.15320
C1688       C  0.89141392  0.92614418  0.18231977     0.37010
N1689       N  0.91424905  0.95315225  0.16938393    -0.89570
H1690       H  0.86103017  0.96698967  0.15780643     0.18120
H1691       H  0.87413067  0.83374387  0.22994263     0.18110
N1692       N  0.82081983  0.84471977  0.21540867    -0.88600
H1693       H  0.91409604  0.94268078  0.14875509     0.35490
H1694       H  0.93358388  0.94136173  0.17732879     0.40590
H1695       H  0.80750877  0.87154808  0.22511134     0.40210
H1696       H  0.82736979  0.81759686  0.23020849     0.35090
C1697       C  0.60704501  0.87353367  0.20939678    -0.26640
C1698       C  0.58846524  0.85146747  0.19007650    -0.14710
C1699       C  0.59834116  0.83872077  0.16400415     0.35920
C1700       C  0.62650356  0.84743088  0.15775615    -0.26080
C1701       C  0.64528824  0.87046072  0.17657597    -0.15320
C1702       C  0.63546561  0.88355932  0.20285975     0.37010
N1703       N  0.65409874  0.90620943  0.22277483    -0.89570
H1704       H  0.59955686  0.88132592  0.22983044     0.18120
H1705       H  0.63372407  0.83742296  0.13746386     0.18110
N1706       N  0.57958743  0.81692821  0.14383747    -0.88600
H1707       H  0.64363631  0.91207485  0.24122852     0.35490
H1708       H  0.65987643  0.94354532  0.21579931     0.40590
H1709       H  0.57359372  0.77944673  0.15040104     0.40210
H1710       H  0.58991695  0.81152471  0.12528103     0.35090
C1711       C  0.87720863  0.18012602  0.17309086    -0.26640
C1712       C  0.89279467  0.14898213  0.19142577    -0.14710
C1713       C  0.87957030  0.10401293  0.20311585     0.35920
C1714       C  0.85130955  0.09271587  0.19623946    -0.26080
C1715       C  0.83582501  0.12523391  0.17834725    -0.15320
C1716       C  0.84911397  0.16987109  0.16694845     0.37010
N1717       N  0.83491694  0.20523237  0.14840730    -0.89570
H1718       H  0.88674416  0.21485334  0.16412501     0.18120
H1719       H  0.84179716  0.05692576  0.20397880     0.18110
N1720       N  0.89354740  0.06935544  0.22203145    -0.88600
H1721       H  0.83540649  0.24290242  0.15708559     0.35490
H1722       H  0.81367875  0.19594811  0.14630227     0.40590
H1723       H  0.91441399  0.07995723  0.22497891     0.40210
H1724       H  0.89393752  0.03171371  0.21332600     0.35090
C1725       C  0.59888858  0.09968226  0.19903521    -0.26640
C1726       C  0.58630634  0.14197933  0.18498465    -0.14710
C1727       C  0.60277780  0.17298812  0.16728380     0.35920
C1728       C  0.63135081  0.16203518  0.16436114    -0.26080
C1729       C  0.64405721  0.11986038  0.17808636    -0.15320
C1730       C  0.62767350  0.08781258  0.19540377     0.37010
N1731       N  0.64001666  0.04245193  0.20833355    -0.89570
H1732       H  0.58658449  0.07719913  0.21346057     0.18120
H1733       H  0.64359860  0.18499382  0.15004249     0.18110
N1734       N  0.59037911  0.21688396  0.15293337    -0.88600
H1735       H  0.62503580  0.02250442  0.21993054     0.35490
H1736       H  0.65531581  0.05596161  0.22200346     0.40590
H1737       H  0.57534687  0.20177984  0.13943376     0.40210
H1738       H  0.60533036  0.23633897  0.14108343     0.35090
C1739       C  0.79839343  0.71824399  0.07564937    -0.26640
C1740       C  0.79040489  0.69295688  0.05129394    -0.14710
C1741       C  0.78481329  0.72458014  0.02822980     0.35920
C1742       C  0.78573189  0.77972763  0.02999423    -0.26080
C1743       C  0.79318287  0.80518350  0.05417471    -0.15320
C1744       C  0.79976117  0.77399256  0.07743325     0.37010
N1745       N  0.80723918  0.79859851  0.10285410    -0.89570
H1746       H  0.80339260  0.69444135  0.09339613     0.18120
H1747       H  0.78119962  0.80308192  0.01196634     0.18110
N1748       N  0.77974236  0.70061657  0.00241734    -0.88600
H1749       H  0.81231745  0.77013112  0.11753039     0.35490
H1750       H  0.78943297  0.81824021  0.11003205     0.40590
H1751       H  0.79862489  0.68289261  0.99679749     0.40210
H1752       H  0.77469342  0.72927342  0.48799852     0.35090
C1753       C  0.82033920  0.21909045  0.06186110    -0.26640
C1754       C  0.79447392  0.19425719  0.05680067    -0.14710
C1755       C  0.77064090  0.22620493  0.05268273     0.35920
C1756       C  0.77304176  0.28111966  0.05120211    -0.26080
C1757       C  0.79871166  0.30606650  0.05512070    -0.15320
C1758       C  0.82271926  0.27458386  0.06111295     0.37010
N1759       N  0.84983392  0.29735036  0.06554128    -0.89570
H1760       H  0.83888912  0.19531820  0.06563982     0.18120
H1761       H  0.75446137  0.30483988  0.04733159     0.18110
N1762       N  0.74359125  0.20286626  0.05093353    -0.88600
H1763       H  0.84879433  0.32199303  0.08258597     0.35490
H1764       H  0.85511284  0.31979513  0.04842923     0.40590
H1765       H  0.73940449  0.18644983  0.07001719     0.40210
H1766       H  0.72879985  0.23214943  0.04695922     0.35090
C1767       C  0.77284684  0.77287559  0.43756796    -0.26640
C1768       C  0.79654562  0.79942197  0.44796700    -0.14710
C1769       C  0.82106984  0.77028097  0.45393860     0.35920
C1770       C  0.82098206  0.71502688  0.45084847    -0.26080
C1771       C  0.79679759  0.68800086  0.44201425    -0.15320
C1772       C  0.77291695  0.71739465  0.43422893     0.37010
N1773       N  0.74930172  0.69093151  0.42222036    -0.89570
H1774       H  0.75447241  0.79554012  0.43165968     0.18120
H1775       H  0.83952787  0.69263688  0.45651694     0.18110
N1776       N  0.84573211  0.79677023  0.46393341    -0.88600
H1777       H  0.73344585  0.71801040  0.41743340     0.35490
H1778       H  0.74132258  0.66504979  0.43679027     0.40590
H1779       H  0.85327215  0.82065349  0.44822016     0.40210
H1780       H  0.86164281  0.76951666  0.46831004     0.35090
C1781       C  0.79727258  0.21833943  0.42385434    -0.26640
C1782       C  0.80141186  0.19084682  0.44848498    -0.14710
C1783       C  0.80455149  0.22011769  0.47271519     0.35920
C1784       C  0.80226573  0.27532391  0.47228709    -0.26080
C1785       C  0.79828985  0.30293098  0.44768912    -0.15320
C1786       C  0.79605753  0.27383891  0.42305801     0.37010
N1787       N  0.79188278  0.29886324  0.39700932    -0.89570
H1788       H  0.79460727  0.19652739  0.40502972     0.18120
H1789       H  0.80492052  0.29694691  0.49119647     0.18110
N1790       N  0.81114729  0.19460129  0.49789723    -0.88600
H1791       H  0.80981401  0.29186205  0.38535010     0.35490
H1792       H  0.78975111  0.33967852  0.39880804     0.40590
H1793       H  0.82999611  0.17395866  0.49552987     0.40210
H1794       H  0.79535667  0.16728530  0.00182199     0.35090
C1795       C  0.91490886  0.67095645  0.36807535    -0.26640
C1796       C  0.93305510  0.63534455  0.35481451    -0.14710
C1797       C  0.95005322  0.60194119  0.37122509     0.35920
C1798       C  0.94660479  0.60193812  0.39990008    -0.26080
C1799       C  0.92597211  0.63319774  0.41236618    -0.15320
C1800       C  0.91151631  0.67081791  0.39638220     0.37010
N1801       N  0.89154353  0.70689599  0.40807399    -0.89570
H1802       H  0.90210134  0.69830383  0.35655744     0.18120
H1803       H  0.95828098  0.57415518  0.41227063     0.18110
N1804       N  0.97001790  0.56697754  0.35888391    -0.88600
H1805       H  0.89831483  0.74515265  0.40363176     0.35490
H1806       H  0.89151476  0.70419667  0.42934155     0.40590
H1807       H  0.95869381  0.53887069  0.34779826     0.40210
H1808       H  0.98138288  0.54641453  0.37380338     0.35090
C1809       C  0.94470603  0.62900348  0.13430255    -0.26640
C1810       C  0.92361578  0.64589538  0.15228351    -0.14710
C1811       C  0.89866777  0.66735457  0.14103941     0.35920
C1812       C  0.89518055  0.66915720  0.11265518    -0.26080
C1813       C  0.91401615  0.64350500  0.09509007    -0.15320
C1814       C  0.93977160  0.62557285  0.10583200     0.37010
N1815       N  0.95998795  0.60150351  0.08816993    -0.89570
H1816       H  0.96475164  0.61784688  0.14263485     0.18120
H1817       H  0.87564489  0.68454513  0.10438234     0.18110
N1818       N  0.87613792  0.68456072  0.15831885    -0.88600
H1819       H  0.97726577  0.58841721  0.09944522     0.35490
H1820       H  0.96725666  0.63069671  0.07490802     0.40590
H1821       H  0.86858768  0.65140291  0.16861847     0.40210
H1822       H  0.85935660  0.69943215  0.14678823     0.35090
C1823       C  0.92433422  0.34120695  0.39957062    -0.26640
C1824       C  0.93325368  0.38473539  0.41487660    -0.14710
C1825       C  0.94893230  0.42448781  0.40167827     0.35920
C1826       C  0.95485291  0.42030448  0.37369502    -0.26080
C1827       C  0.94404426  0.37867636  0.35790242    -0.15320
C1828       C  0.92919863  0.33809308  0.37139063     0.37010
N1829       N  0.91790036  0.29444118  0.35652962    -0.89570
H1830       H  0.91135428  0.31140392  0.40911154     0.18120
H1831       H  0.96667368  0.45139781  0.36402117     0.18110
N1832       N  0.95744019  0.47127369  0.41575514    -0.88600
H1833       H  0.89616456  0.29447117  0.35938711     0.35490
H1834       H  0.92607822  0.25969583  0.36493695     0.40590
H1835       H  0.96992083  0.46043604  0.43243865     0.40210
H1836       H  0.93947803  0.49027069  0.42301081     0.35090
C1837       C  0.92950543  0.44963590  0.11670221    -0.26640
C1838       C  0.92710975  0.40375345  0.10073738    -0.14710
C1839       C  0.93163888  0.35423604  0.11308507     0.35920
C1840       C  0.93765676  0.35149575  0.14127675    -0.26080
C1841       C  0.93862929  0.39726378  0.15750162    -0.15320
C1842       C  0.93493386  0.44691444  0.14496669     0.37010
N1843       N  0.93412421  0.49395344  0.16129570    -0.89570
H1844       H  0.92492901  0.48756438  0.10742068     0.18120
H1845       H  0.94076686  0.31331750  0.15080236     0.18110
N1846       N  0.92920370  0.30686732  0.09713064    -0.88600
H1847       H  0.92857589  0.52647944  0.14931962     0.35490
H1848       H  0.95443020  0.50113987  0.16844133     0.40590
H1849       H  0.90828854  0.30344052  0.09080075     0.40210
H1850       H  0.93353456  0.27371086  0.10915244     0.35090
C1851       C  0.67575831  0.72531236  0.43698828    -0.26640
C1852       C  0.69058406  0.69862044  0.45780475    -0.14710
C1853       C  0.70448628  0.72953362  0.47787195     0.35920
C1854       C  0.70305411  0.78456336  0.47684282    -0.26080
C1855       C  0.68915772  0.81114269  0.45578500    -0.15320
C1856       C  0.67518877  0.78100465  0.43562086     0.37010
N1857       N  0.66073849  0.80641772  0.41353307    -0.89570
H1858       H  0.66484927  0.70288283  0.42140061     0.18120
H1859       H  0.71328953  0.80677263  0.49286443     0.17930
N1860       N  0.71985315  0.70570996  0.49975249    -0.88600
H1861       H  0.63977879  0.79427160  0.41382442     0.35490
H1862       H  0.66961348  0.79342354  0.39526316     0.40590
H1863       H  0.70529853  0.68514492  0.51110017     0.40210
H1864       H  0.72796558  0.73415979  0.01303824     0.35090
C1865       C  0.71482567  0.28660773  0.47022651    -0.26640
C1866       C  0.69757020  0.31293014  0.45132734    -0.14710
C1867       C  0.68248599  0.28175832  0.43220702     0.35920
C1868       C  0.68392408  0.22624517  0.43358599    -0.26080
C1869       C  0.70015060  0.20000634  0.45362909    -0.15320
C1870       C  0.71602718  0.23178626  0.47180345     0.37010
N1871       N  0.73349627  0.21041910  0.49266697    -0.89570
H1872       H  0.72726888  0.30832508  0.48487245     0.18120
H1873       H  0.67198815  0.20354407  0.41883224     0.18110
N1874       N  0.66564129  0.30488217  0.41108460    -0.88600
H1875       H  0.75036278  0.19143881  0.98348676     0.35490
H1876       H  0.72151748  0.18448345  0.50430411     0.40590
H1877       H  0.67809185  0.33102694  0.39995858     0.40210
H1878       H  0.64922242  0.32565532  0.42010671     0.35090
C1879       C  0.66724715  0.77614514  0.04011900    -0.26640
C1880       C  0.68796155  0.80453661  0.05408712    -0.14710
C1881       C  0.70710332  0.77723990  0.07114008     0.35920
C1882       C  0.70605230  0.72171509  0.07270757    -0.26080
C1883       C  0.68549409  0.69309329  0.05849920    -0.15320
C1884       C  0.66563192  0.72095190  0.04206584     0.37010
N1885       N  0.64458537  0.69483867  0.02583284    -0.89570
H1886       H  0.65216421  0.79708281  0.02747033     0.18120
H1887       H  0.72110729  0.70069592  0.08534485     0.18110
N1888       N  0.72664226  0.80620697  0.08776678    -0.88600
H1889       H  0.62498481  0.70438390  0.03397220     0.35490
H1890       H  0.64649434  0.65391394  0.02635492     0.40590
H1891       H  0.74010382  0.82638411  0.07474401     0.40210
H1892       H  0.73909870  0.78044568  0.09931601     0.35090
C1893       C  0.68675520  0.27632050  0.07964652    -0.26640
C1894       C  0.68157068  0.30318644  0.05516772    -0.14710
C1895       C  0.67297376  0.27366175  0.03196585     0.35920
C1896       C  0.67332719  0.21809619  0.03307717    -0.26080
C1897       C  0.68063657  0.19089863  0.05705654    -0.15320
C1898       C  0.68681024  0.22089410  0.08105487     0.37010
N1899       N  0.69537224  0.19738219  0.10657907    -0.89570
H1900       H  0.69212581  0.29873621  0.09777076     0.18120
H1901       H  0.66771742  0.19589047  0.01495825     0.18110
N1902       N  0.66285167  0.29819432  0.00732940    -0.88600
H1903       H  0.71441642  0.21459179  0.11244339     0.35490
H1904       H  0.70024003  0.15762144  0.10445221     0.40590
H1905       H  0.66160018  0.33906890  0.00917502     0.40210
H1906       H  0.64224558  0.28539811  0.00408919     0.35090
C1907       C  0.55175032  0.55586263  0.36080337    -0.26640
C1908       C  0.54077809  0.60287039  0.35028271    -0.14710
C1909       C  0.53567168  0.64562477  0.36818991     0.35920
C1910       C  0.54387277  0.64176775  0.39589044    -0.26080
C1911       C  0.55705755  0.59615898  0.40588429    -0.15320
C1912       C  0.56020495  0.55224536  0.38829247     0.37010
N1913       N  0.57370760  0.50520042  0.39811454    -0.89570
H1914       H  0.55518114  0.52282521  0.34717848     0.18120
H1915       H  0.54148270  0.67547354  0.40926639     0.18110
N1916       N  0.52225989  0.69275801  0.35821320    -0.88600
H1917       H  0.57514496  0.47698506  0.38264349     0.35490
H1918       H  0.56095368  0.48954339  0.41334771     0.40590
H1919       H  0.53621721  0.71157564  0.34505871     0.40210
H1920       H  0.01864921  0.71908679  0.37423364     0.35090
C1921       C  0.53483424  0.58138911  0.10385186    -0.26640
C1922       C  0.55352300  0.61942805  0.09393521    -0.14710
C1923       C  0.56331028  0.65894999  0.11192057     0.35920
C1924       C  0.55542521  0.65774512  0.13941328    -0.26080
C1925       C  0.53817383  0.61770002  0.15006332    -0.15320
C1926       C  0.52713316  0.57961182  0.13166050     0.37010
N1927       N  0.51042210  0.53632992  0.14126754    -0.89570
H1928       H  0.52803312  0.55012082  0.09028120     0.18120
H1929       H  0.56388174  0.68775959  0.15280837     0.18110
N1930       N  0.58216330  0.69985184  0.10321475    -0.88600
H1931       H  0.00684435  0.50906801  0.12563785     0.35490
H1932       H  0.49068245  0.55055973  0.14618367     0.40590
H1933       H  0.58559651  0.69853598  0.08220465     0.40210
H1934       H  0.60151764  0.69349378  0.11285977     0.35090
C1935       C  0.58404346  0.34021916  0.39383469    -0.26640
C1936       C  0.56576722  0.36779268  0.41106877    -0.14710
C1937       C  0.54064768  0.38842026  0.39961415     0.35920
C1938       C  0.53705344  0.38837200  0.37096710    -0.26080
C1939       C  0.55783489  0.36789756  0.35354981    -0.15320
C1940       C  0.58168665  0.34351683  0.36543535     0.37010
N1941       N  0.60458840  0.32544779  0.34887503    -0.89570
H1942       H  0.60275113  0.32242341  0.40251608     0.18120
H1943       H  0.51806206  0.40518902  0.36232311     0.18110
N1944       N  0.51865424  0.41014472  0.41603090    -0.88600
H1945       H  0.62047524  0.30843549  0.36080380     0.35490
H1946       H  0.61335943  0.35852097  0.33946212     0.40590
H1947       H  0.52276512  0.40469023  0.43671152     0.40210
H1948       H  0.00087334  0.38722498  0.41221731     0.35090
C1949       C  0.55477544  0.43969956  0.11288708    -0.26640
C1950       C  0.55391266  0.39414259  0.09646028    -0.14710
C1951       C  0.54785148  0.34517255  0.10881427     0.35920
C1952       C  0.54394609  0.34290750  0.13720449    -0.26080
C1953       C  0.54706465  0.38798299  0.15378362    -0.15320
C1954       C  0.55287595  0.43690421  0.14138111     0.37010
N1955       N  0.55956831  0.48341338  0.15692859    -0.89570
H1956       H  0.56078276  0.47697092  0.10379414     0.18120
H1957       H  0.53978412  0.30496307  0.14654384     0.18110
N1958       N  0.54742721  0.29671399  0.09357867    -0.88600
H1959       H  0.58035453  0.49359954  0.15270871     0.35490
H1960       H  0.55851999  0.47710157  0.17790566     0.40590
H1961       H  0.55015246  0.30374862  0.07276773     0.40210
H1962       H  0.52739208  0.28043632  0.09556667     0.35090
C1963       C  0.56986485  0.39709802  0.57073848     0.42140
N1964       N  0.60242440  0.44246511  0.55139025     0.01030
C1965       C  0.60282577  0.58646008  0.93175862    -0.06850
H1966       H  0.62155501  0.41045210  0.91653562     0.06520
C1967       C  0.70650691  0.40306310  0.97627878    -0.07200
Co1968     Co  0.58309223  0.49961951  0.50120504     0.74180
N1969       N  0.60992158  0.44495173  0.95438685    -0.26380
Co1970     Co  0.63998126  0.50305864  0.95660229     0.74070
C1971       C  0.69457078  0.37166363  0.95397066     0.42240
N1972       N  0.68423302  0.43977348  0.53762452     0.00640
N1973       N  0.67132784  0.44466870  0.95855718     0.00750
N1974       N  0.56322523  0.57686667  0.95587066    -0.47220
H1975       H  0.53875810  0.41768429  0.53602762     0.06510
N1976       N  0.58722477  0.44279532  0.96971474     0.01040
N1977       N  0.66945756  0.56339514  0.96029483     0.00780
C1978       C  0.69005242  0.63928952  0.95878546     0.42380
N1979       N  0.66339931  0.44119604  0.55514263    -0.25830
C1980       C  0.56005234  0.58549527  0.54277283    -0.06750
N1981       N  0.59624164  0.41463103  0.57315592    -0.46940
N1982       N  0.66905377  0.60996873  0.94785100    -0.47160
C1983       C  0.56987767  0.60648022  0.56926497     0.42150
N1984       N  0.58501551  0.55564873  0.96908424     0.01020
N1985       N  0.66331227  0.55802584  0.55627960    -0.25850
N1986       N  0.58175339  0.44423445  0.53336120    -0.26350
N1987       N  0.68467831  0.55893333  0.53944822     0.00660
H1988       H  0.64649940  0.61537931  0.58436041     0.06550
H1989       H  0.72131378  0.61213562  0.99222592     0.06590
N1990       N  0.60799104  0.55824919  0.95419410    -0.26400
N1991       N  0.69014326  0.44571634  0.97819043    -0.26010
N1992       N  0.60174764  0.55683853  0.55173688     0.01030
C1993       C  0.57958677  0.38931180  0.93608163     0.42420
C1994       C  0.66188256  0.39469343  0.56808812    -0.07260
N1995       N  0.68885932  0.56059376  0.97940398    -0.26010
H1996       H  0.72303141  0.39333371  0.99057519     0.06570
N1997       N  0.56781683  0.41134439  0.95868409    -0.47230
H1998       H  0.64550729  0.38264303  0.58185444     0.06560
C1999       C  0.68596655  0.63456556  0.56001063     0.42260
C2000       C  0.55995184  0.41726980  0.54406248    -0.06760
Co2001     Co  0.63303270  0.49980324  0.55390898     0.73820
N2002       N  0.69609418  0.39223238  0.53671162    -0.46950
C2003       C  0.57292239  0.59781847  0.93213606     0.42530
N2004       N  0.59559294  0.58617384  0.57305045    -0.46940
Co2005     Co  0.68802304  0.50120705  0.00880101     0.73890
C2006       C  0.70406891  0.60465468  0.97868649    -0.07270
C2007       C  0.60740000  0.41180284  0.93370005    -0.06830
N2008       N  0.58143801  0.55583252  0.53317674    -0.26360
N2009       N  0.67283630  0.40058019  0.94395850    -0.47120
H2010       H  0.61653071  0.58738145  0.91423625     0.06530
C2011       C  0.66285607  0.60319552  0.57054515    -0.07240
Cl2012     Cl  0.63566873  0.50117378  0.50509711    -0.50240
C2013       C  0.68308711  0.36180098  0.55556103     0.42290
H2014       H  0.53921997  0.58741241  0.53393086     0.06500
N2015       N  0.69839064  0.60439831  0.54070005    -0.46950
C2016       C  0.79929234  0.36408920  0.55092251     0.42140
N2017       N  0.81629350  0.44202815  0.54749064     0.01030
C2018       C  0.82022903  0.59766287  0.93345378    -0.06850
H2019       H  0.83941322  0.37983884  0.92369483     0.06520
C2020       C  0.92662375  0.42040166  0.96586999    -0.07200
Co2021     Co  0.79672655  0.49791688  0.99716135     0.74180
N2022       N  0.82264393  0.43793630  0.95144162    -0.26380
Co2023     Co  0.85208782  0.49837095  0.95258665     0.74070
C2024       C  0.91720109  0.39649706  0.93985281     0.42240
N2025       N  0.90011897  0.45292097  0.53856831     0.00640
N2026       N  0.88416483  0.44411029  0.95669791     0.00750
N2027       N  0.78480845  0.60092596  0.96341579    -0.47220
H2028       H  0.76937279  0.37779901  0.51476822     0.06510
N2029       N  0.80112609  0.43753234  0.96813408     0.01040
N2030       N  0.88187324  0.55790801  0.95397883     0.00780
C2031       C  0.91141268  0.61203276  0.93650839     0.42380
N2032       N  0.87716377  0.45079330  0.55346619    -0.25830
C2033       C  0.77836536  0.60118193  0.52755933    -0.06750
N2034       N  0.81852647  0.39730815  0.56135679    -0.46940
N2035       N  0.88693785  0.58732566  0.93246177    -0.47160
C2036       C  0.79048781  0.63388847  0.54945284     0.42150
N2037       N  0.79918314  0.55607407  0.96603344     0.01020
N2038       N  0.87303806  0.56379751  0.55109190    -0.25850
N2039       N  0.79728223  0.44006446  0.52789267    -0.26350
N2040       N  0.89618803  0.56610927  0.53649097     0.00660
H2041       H  0.85938752  0.59976571  0.58784425     0.06550
H2042       H  0.94227935  0.60003175  0.97256741     0.06590
N2043       N  0.82050828  0.55433465  0.94910238    -0.26400
N2044       N  0.90457209  0.44892524  0.97496989    -0.26010
N2045       N  0.81244473  0.55937932  0.54666084     0.01030
C2046       C  0.79973629  0.36151998  0.94816086     0.42420
C2047       C  0.88202941  0.42180248  0.57564671    -0.07260
N2048       N  0.90181334  0.56099026  0.97281110    -0.26010
H2049       H  0.94751886  0.42108476  0.97460998     0.06570
N2050       N  0.78735918  0.39203915  0.96730099    -0.47230
H2051       H  0.86819942  0.41985385  0.59304839     0.06560
C2052       C  0.90155951  0.62218377  0.56947656     0.42260
C2053       C  0.78462988  0.39280414  0.52915258    -0.06760
Co2054     Co  0.84440282  0.50378000  0.54979380     0.73820
N2055       N  0.92164292  0.42978919  0.55131976    -0.46950
C2056       C  0.79673039  0.62921646  0.94289491     0.42530
N2057       N  0.81126636  0.60438271  0.56043423    -0.46940
Co2058     Co  0.90157345  0.50742944  0.50583208     0.73890
C2059       C  0.92194623  0.59364028  0.96322526    -0.07270
C2060       C  0.82318621  0.39218502  0.93763746    -0.06830
N2061       N  0.79401861  0.55722550  0.52666920    -0.26360
N2062       N  0.89086788  0.41351965  0.93608056    -0.47120
H2063       H  0.83620891  0.60867716  0.91900298     0.06530
C2064       C  0.87412452  0.59848106  0.57114912    -0.07240
Cl2065     Cl  0.84900350  0.50203064  0.50128084    -0.50240
C2066       C  0.91147967  0.40778073  0.57460829     0.42290
H2067       H  0.76236375  0.61122165  0.51292941     0.06500
N2068       N  0.91473162  0.59912458  0.54780796    -0.46950
C2069       C  0.66994273  0.10023338  0.66553552     0.42140
N2070       N  0.69054044  0.05237701  0.63587404     0.01030
C2071       C  0.81520607  0.91765114  0.63803066    -0.06850
H2072       H  0.83165097  0.08658592  0.62365114     0.06520
C2073       C  0.77010321  0.10497788  0.54160091    -0.07200
Co2074     Co  0.74221913  0.99837265  0.65630239     0.74180
N2075       N  0.79120606  0.05486240  0.63272829    -0.26380
Co2076     Co  0.78988140  0.99886303  0.60266337     0.74070
C2077       C  0.79215228  0.13544996  0.55558095     0.42240
N2078       N  0.70619602  0.05864187  0.55694529     0.00640
N2079       N  0.78846536  0.05825894  0.57362292     0.00750
N2080       N  0.78927579  0.92478014  0.67617061    -0.47220
H2081       H  0.70489887  0.08417615  0.69746511     0.06510
N2082       N  0.77495984  0.05538578  0.65451366     0.01040
N2083       N  0.78839962  0.94044512  0.57322796     0.00780
C2084       C  0.79179530  0.86398292  0.55450097     0.42380
N2085       N  0.68748680  0.05446026  0.57644239    -0.25830
C2086       C  0.69844848  0.91105768  0.67644695    -0.06750
N2087       N  0.66779435  0.08004287  0.64054185    -0.46940
N2088       N  0.80193276  0.89476142  0.57466725    -0.47160
C2089       C  0.67199167  0.88977032  0.66473441     0.42150
N2090       N  0.77546053  0.94378215  0.65466989     0.01020
N2091       N  0.68944427  0.93897776  0.57586027    -0.25850
N2092       N  0.70856266  0.05261423  0.65651564    -0.26350
N2093       N  0.70758442  0.93913828  0.55576413     0.00660
H2094       H  0.66022976  0.88080793  0.59064251     0.06550
H2095       H  0.75620922  0.88313076  0.52439187     0.06590
N2096       N  0.79132786  0.94258875  0.63264576    -0.26400
N2097       N  0.76868254  0.05879112  0.55480461    -0.26010
N2098       N  0.69237490  0.93935366  0.63536420     0.01030
C2099       C  0.81082170  0.10390642  0.66420297     0.42420
C2100       C  0.67102347  0.09732057  0.57653752    -0.07260
N2101       N  0.76918926  0.94144656  0.55384755    -0.26010
H2102       H  0.75558240  0.11790007  0.52606203     0.06570
N2103       N  0.78694214  0.08267416  0.67476592    -0.47230
H2104       H  0.65514144  0.10624911  0.59148705     0.06560
C2105       C  0.68714551  0.86295887  0.55348005     0.42260
C2106       C  0.69695494  0.08142505  0.67680360    -0.06760
Co2107     Co  0.68992412  0.99622126  0.60569553     0.73820
N2108       N  0.70449922  0.10539043  0.54463067    -0.46950
C2109       C  0.81455835  0.90783900  0.66700119     0.42530
N2110       N  0.67043785  0.90951811  0.63954733    -0.46940
Co2111     Co  0.73794269  0.99980917  0.55407004     0.73890
C2112       C  0.77062559  0.89570094  0.54011491    -0.07270
C2113       C  0.81344467  0.08524969  0.63672662    -0.06830
N2114       N  0.70978600  0.94113238  0.65642612    -0.26360
N2115       N  0.80260291  0.10328375  0.57504427    -0.47120
H2116       H  0.83342669  0.91896950  0.62497348     0.06530
C2117       C  0.67515153  0.89354339  0.57552069    -0.07240
Cl2118     Cl  0.73999448  0.99850796  0.60479866    -0.50240
C2119       C  0.68274431  0.13216896  0.55609720     0.42290
H2120       H  0.70614711  0.90883250  0.69721104     0.06500
N2121       N  0.70747359  0.89349801  0.54239654    -0.46950
C2122       C  0.70064832  0.14052553  0.95410089     0.42140
N2123       N  0.70023329  0.06326148  0.93519209     0.01030
C2124       C  0.80918408  0.88975286  0.92752750    -0.06850
H2125       H  0.82616708  0.11079358  0.91013784     0.06520
C2126       C  0.78709524  0.08083457  0.82840650    -0.07200
Co2127     Co  0.74926923  0.99865774  0.95266030     0.74180
N2128       N  0.79848167  0.05342089  0.92830747    -0.26380
Co2129     Co  0.79526071  0.99443992  0.89921295     0.74070
C2130       C  0.81556491  0.09420603  0.83783265     0.42240
N2131       N  0.70979379  0.06004583  0.85366268     0.00640
N2132       N  0.79506628  0.05043819  0.86893793     0.00750
N2133       N  0.77733463  0.88875998  0.96114783    -0.47220
H2134       H  0.73600227  0.11217052  0.98344419     0.06510
N2135       N  0.78152481  0.05539143  0.94935818     0.01040
N2136       N  0.79134382  0.93788484  0.86937431     0.00780
C2137       C  0.81390584  0.90492809  0.83557168     0.42380
N2138       N  0.69502306  0.06152991  0.87634433    -0.25830
C2139       C  0.71477965  0.89935021  0.96779909    -0.06750
N2140       N  0.68845974  0.11073942  0.93442962    -0.46940
N2141       N  0.81454595  0.91347365  0.86243836    -0.47160
C2142       C  0.69210919  0.86964348  0.95464048     0.42150
N2143       N  0.77808458  0.93578164  0.94906431     0.01020
N2144       N  0.69217176  0.94912879  0.87545406    -0.25850
N2145       N  0.72012057  0.05984977  0.95371482    -0.26350
N2146       N  0.70792950  0.94815293  0.85333892     0.00660
H2147       H  0.65096644  0.92167247  0.88470066     0.06550
H2148       H  0.77957320  0.93292960  0.80553080     0.06590
N2149       N  0.79584711  0.93624054  0.92866254    -0.26400
N2150       N  0.77581531  0.05364649  0.84941046    -0.26010
N2151       N  0.69696710  0.94500180  0.93494969     0.01030
C2152       C  0.80186658  0.13195680  0.94855499     0.42420
C2153       C  0.67291980  0.09257415  0.87319968    -0.07260
N2154       N  0.77366888  0.94421209  0.84869102    -0.26010
H2155       H  0.77811378  0.08432692  0.80817245     0.06570
N2156       N  0.78265684  0.10204080  0.96170318    -0.47230
H2157       H  0.65544586  0.09387213  0.88719616     0.06560
C2158       C  0.66994553  0.90702595  0.84275936     0.42260
C2159       C  0.72092703  0.10508137  0.96764575    -0.06760
Co2160     Co  0.69591395  0.00462290  0.90583242     0.73820
N2161       N  0.69644416  0.08556821  0.83358525    -0.46950
C2162       C  0.79691260  0.85797053  0.94893739     0.42530
N2163       N  0.68206087  0.90083109  0.93445241    -0.46940
Co2164     Co  0.74158371  0.00163225  0.85064296     0.73890
C2165       C  0.78635130  0.92489000  0.82621772    -0.07270
C2166       C  0.81250354  0.09920325  0.92655771    -0.06830
N2167       N  0.71690148  0.94410080  0.95357807    -0.26360
N2168       N  0.81870922  0.07378628  0.86266357    -0.47120
H2169       H  0.82318128  0.87722983  0.91151957     0.06530
C2170       C  0.66878802  0.92198991  0.87113810    -0.07240
Cl2171     Cl  0.74549180  0.99982319  0.90191375    -0.50240
C2172       C  0.67324863  0.10806250  0.84495852     0.42290
H2173       H  0.72953583  0.88663819  0.98320155     0.06500
N2174       N  0.69478107  0.92438402  0.83273968    -0.46950
C2175       C  0.55999647  0.16571749  0.69480615     0.42140
N2176       N  0.54072460  0.22241439  0.72111129     0.01030
C2177       C  0.92278221  0.22572616  0.79941873    -0.06850
H2178       H  0.90051192  0.25505602  0.71193475     0.06520
C2179       C  0.96528770  0.41596373  0.70364496    -0.07200
Co2180     Co  0.99119815  0.18320766  0.75227265     0.74180
N2181       N  0.94176279  0.23456889  0.72557774    -0.26380
Co2182     Co  0.94572056  0.29161056  0.75527116     0.74070
C2183       C  0.94272897  0.39218476  0.68750578     0.42240
N2184       N  0.52803690  0.37746433  0.72374940     0.00640
N2185       N  0.94733397  0.35047955  0.72561165     0.00750
N2186       N  0.94667724  0.14919782  0.79589940    -0.47220
H2187       H  0.52645279  0.10314314  0.70561096     0.06510
N2188       N  0.95704921  0.19095880  0.72440359     0.01040
N2189       N  0.94947562  0.34623851  0.78689464     0.00780
C2190       C  0.94798233  0.37852494  0.82762161     0.42380
N2191       N  0.54510143  0.33674810  0.72245893    -0.25830
C2192       C  0.53636594  0.13977445  0.79553496    -0.06750
N2193       N  0.56223259  0.21397634  0.70521608    -0.46940
N2194       N  0.93626287  0.34300655  0.81053506    -0.47160
C2195       C  0.56389691  0.15978109  0.80489512     0.42150
N2196       N  0.95957537  0.18806033  0.78250873     0.01020
N2197       N  0.54830759  0.33216690  0.78235834    -0.25850
N2198       N  0.52308462  0.18225845  0.72219637    -0.26350
N2199       N  0.53084141  0.37193192  0.78510292     0.00660
H2200       H  0.57882235  0.29671993  0.80862831     0.06550
H2201       H  0.98513032  0.43361224  0.81886907     0.06590
N2202       N  0.94469940  0.23205766  0.78347649    -0.26400
N2203       N  0.96707371  0.38665312  0.72646810    -0.26010
N2204       N  0.54437070  0.21740270  0.77923224     0.01030
C2205       C  0.91894273  0.17453430  0.70180081     0.42420
C2206       C  0.55821376  0.33693512  0.69840508    -0.07260
N2207       N  0.96973992  0.38132881  0.78728660    -0.26010
H2208       H  0.97996479  0.44615894  0.69764659     0.06570
N2209       N  0.94350191  0.15288931  0.71088469    -0.47230
H2210       H  0.57234848  0.30700067  0.69093530     0.06560
C2211       C  0.55374459  0.36841381  0.82330860     0.42260
C2212       C  0.53402896  0.14329953  0.70652173    -0.06760
Co2213     Co  0.54475349  0.27771209  0.75123883     0.73820
N2214       N  0.52789587  0.40493977  0.70065671    -0.46950
C2215       C  0.92350098  0.17112757  0.80764108     0.42530
N2216       N  0.56709517  0.20694905  0.79345065    -0.46940
Co2217     Co  0.99896047  0.38155245  0.75578074     0.73890
C2218       C  0.96985296  0.40516851  0.81187031    -0.07270
C2219       C  0.91825336  0.22836639  0.71132589    -0.06830
N2220       N  0.52552916  0.17912729  0.77989419    -0.26360
N2221       N  0.93281255  0.35151833  0.70244316    -0.47120
H2222       H  0.90540184  0.25320674  0.80018747     0.06530
C2223       C  0.56411850  0.32811024  0.80479088    -0.07240
Cl2224     Cl  0.99511262  0.28267033  0.75364066    -0.50240
C2225       C  0.54660124  0.38161053  0.68379844     0.42290
H2226       H  0.52738372  0.10093475  0.79803622     0.06500
N2227       N  0.53294743  0.39404909  0.80964503    -0.46950
C2228       C  0.53340441  0.61735029  0.68036753     0.42140
N2229       N  0.53232019  0.65176653  0.72082709     0.01030
C2230       C  0.92258660  0.67827037  0.80732828    -0.06850
H2231       H  0.90504087  0.71775431  0.69701738     0.06520
C2232       C  0.95033101  0.87185485  0.71448413    -0.07200
Co2233     Co  0.98119724  0.62333759  0.75154636     0.74180
N2234       N  0.93383355  0.67810219  0.72376210    -0.26380
Co2235     Co  0.93891555  0.73221650  0.75440431     0.74070
C2236       C  0.92202687  0.85576669  0.70502984     0.42240
N2237       N  0.52675579  0.81089740  0.72459650     0.00640
N2238       N  0.94238814  0.79091702  0.72543978     0.00750
N2239       N  0.95213397  0.60913355  0.80797674    -0.47220
H2240       H  0.49416392  0.56722671  0.68993375     0.06510
N2241       N  0.95013659  0.63662653  0.72117055     0.01040
N2242       N  0.94397395  0.78802719  0.78474241     0.00780
C2243       C  0.92391293  0.85269909  0.80545301     0.42380
N2244       N  0.54116218  0.76620609  0.72398703    -0.25830
C2245       C  0.51323847  0.58591353  0.80436601    -0.06750
N2246       N  0.54596826  0.65225315  0.69737204    -0.46940
N2247       N  0.92157532  0.80201047  0.79838111    -0.47160
C2248       C  0.53645281  0.60762368  0.82038506     0.42150
N2249       N  0.95206475  0.63255263  0.78363323     0.01020
N2250       N  0.54211972  0.76342740  0.78210817    -0.25850
N2251       N  0.51091353  0.61916258  0.72048678    -0.26350
N2252       N  0.52800517  0.80844574  0.78235108     0.00660
H2253       H  0.58233225  0.73948654  0.79687156     0.06550
H2254       H  0.96000436  0.90872159  0.79356385     0.06590
N2255       N  0.93577883  0.67437812  0.78349035    -0.26400
N2256       N  0.96152763  0.82842036  0.72650045    -0.26010
N2257       N  0.53345793  0.64853137  0.78201560     0.01030
C2258       C  0.92817120  0.64426492  0.68248434     0.42420
C2259       C  0.56333516  0.77163299  0.70797590    -0.07260
N2260       N  0.96282215  0.82601383  0.78316589    -0.26010
H2261       H  0.95902241  0.91113253  0.71599851     0.06570
N2262       N  0.94797697  0.61588101  0.69624750    -0.47230
H2263       H  0.58048392  0.74374003  0.70652359     0.06560
C2264       C  0.56695823  0.82398085  0.80343189     0.42260
C2265       C  0.51034458  0.59426757  0.69621398    -0.06760
Co2266     Co  0.53745444  0.70661738  0.75230198     0.73820
N2267       N  0.53984813  0.84892065  0.71092561    -0.46950
C2268       C  0.93403377  0.63612078  0.82418333     0.42530
N2269       N  0.54790710  0.64625743  0.80516655    -0.46940
Co2270     Co  0.99502593  0.81972182  0.75414373     0.73890
C2271       C  0.95177763  0.86914924  0.79541543    -0.07270
C2272       C  0.91858263  0.68462488  0.70111475    -0.06830
N2273       N  0.51247877  0.61488265  0.78132784    -0.26360
N2274       N  0.91960763  0.80532932  0.71238148    -0.47120
H2275       H  0.90941001  0.71088799  0.81313375     0.06530
C2276       C  0.56571511  0.76855820  0.79641333    -0.07240
Cl2277     Cl  0.98829111  0.72112515  0.75308361    -0.50240
C2278       C  0.56255121  0.82583386  0.69926109     0.42290
H2279       H  0.49785763  0.55702011  0.81042207     0.06500
N2280       N  0.54273072  0.84642321  0.79440856    -0.46950
C2281       C  0.86382161  0.93236796  0.83361423    -0.26640
C2282       C  0.84109469  0.90565085  0.82095644    -0.14710
C2283       C  0.84661695  0.87323590  0.79835701     0.35920
C2284       C  0.87455972  0.86388221  0.79118142    -0.26080
C2285       C  0.89734802  0.88336191  0.80679935    -0.15320
C2286       C  0.89185572  0.92090538  0.82721701     0.37010
N2287       N  0.91371038  0.94449248  0.84342781    -0.89570
H2288       H  0.85991385  0.95921090  0.85038574     0.18120
H2289       H  0.87842184  0.83560234  0.77515658     0.18110
N2290       N  0.82495791  0.84570653  0.78363375    -0.88600
H2291       H  0.91263461  0.98528760  0.84041081     0.35490
H2292       H  0.93353151  0.93275207  0.83682387     0.40590
H2293       H  0.80499700  0.85489073  0.79077330     0.40210
H2294       H  0.82789289  0.80529530  0.78690562     0.35090
C2295       C  0.64484551  0.85531011  0.80750195    -0.26640
C2296       C  0.64446188  0.89609020  0.82652807    -0.14710
C2297       C  0.61863200  0.92091421  0.83280939     0.35920
C2298       C  0.59337025  0.89856803  0.82377971    -0.26080
C2299       C  0.59357457  0.85297588  0.80782017    -0.15320
C2300       C  0.61959879  0.83419143  0.79743876     0.37010
N2301       N  0.62045267  0.79345997  0.77706336    -0.89570
H2302       H  0.66474448  0.83802058  0.80164007     0.18120
H2303       H  0.57360889  0.91542423  0.83036877     0.18110
N2304       N  0.61794164  0.96830128  0.84873324    -0.88600
H2305       H  0.64114736  0.78490086  0.77157769     0.35490
H2306       H  0.61047917  0.80797914  0.75956436     0.40590
H2307       H  0.60797333  0.99757851  0.83715914     0.40210
H2308       H  0.60570269  0.96133083  0.86599831     0.35090
C2309       C  0.87781263  0.17830284  0.82996941    -0.26640
C2310       C  0.89677663  0.14561563  0.81596205    -0.14710
C2311       C  0.88741391  0.09588815  0.80667605     0.35920
C2312       C  0.85917566  0.08106223  0.81132892    -0.26080
C2313       C  0.84022209  0.11572925  0.82421227    -0.15320
C2314       C  0.84976199  0.16477545  0.83350062     0.37010
N2315       N  0.83099373  0.20023487  0.84737739    -0.89570
H2316       H  0.88479182  0.21572418  0.83791847     0.18120
H2317       H  0.85221301  0.04171717  0.80593929     0.18110
N2318       N  0.90641713  0.06045791  0.79326589    -0.88600
H2319       H  0.84101419  0.23589217  0.85185081     0.35490
H2320       H  0.82592291  0.18331795  0.86614751     0.40590
H2321       H  0.91211310  0.07778967  0.77479547     0.40210
H2322       H  0.89626238  0.02514039  0.78835214     0.35090
C2323       C  0.60591983  0.10184237  0.80232875    -0.26640
C2324       C  0.58866912  0.13551833  0.81778054    -0.14710
C2325       C  0.60016825  0.16178628  0.84053923     0.35920
C2326       C  0.62863910  0.15557400  0.84680952    -0.26080
C2327       C  0.64604241  0.12160535  0.83181652    -0.15320
C2328       C  0.63443384  0.09351334  0.80954591     0.37010
N2329       N  0.65133476  0.05670903  0.79453092    -0.89570
H2330       H  0.59741473  0.08362568  0.78407826     0.18120
H2331       H  0.63722289  0.17631143  0.86431021     0.18110
N2332       N  0.58278668  0.19518320  0.85721230    -0.88600
H2333       H  0.63971526  0.04032180  0.77848385     0.35490
H2334       H  0.65638089  0.02551465  0.80765036     0.40590
H2335       H  0.57664096  0.22785350  0.84564419     0.40210
H2336       H  0.59421743  0.21005939  0.87377644     0.35090
C2337       C  0.86393520  0.93780223  0.67374040    -0.26640
C2338       C  0.84070899  0.90859066  0.68326702    -0.14710
C2339       C  0.84432111  0.87390458  0.70507677     0.35920
C2340       C  0.87154367  0.86394860  0.71459434    -0.26080
C2341       C  0.89547382  0.88606755  0.70191500    -0.15320
C2342       C  0.89141393  0.92614414  0.68231975     0.37010
N2343       N  0.91424906  0.95315218  0.66938391    -0.89570
H2344       H  0.86103019  0.96698960  0.65780639     0.18120
H2345       H  0.87413067  0.83374395  0.72994267     0.18110
N2346       N  0.82081984  0.84471983  0.71540869    -0.88600
H2347       H  0.91409606  0.94268067  0.64875507     0.35490
H2348       H  0.93358390  0.94136168  0.67732878     0.40590
H2349       H  0.80750877  0.87154817  0.72511135     0.40210
H2350       H  0.82736979  0.81759695  0.73020852     0.35090
C2351       C  0.60704502  0.87353365  0.70939679    -0.26640
C2352       C  0.58846524  0.85146748  0.69007650    -0.14710
C2353       C  0.59834116  0.83872079  0.66400415     0.35920
C2354       C  0.62650355  0.84743089  0.65775615    -0.26080
C2355       C  0.64528824  0.87046071  0.67657596    -0.15320
C2356       C  0.63546562  0.88355929  0.70285976     0.37010
N2357       N  0.65409876  0.90620937  0.72277483    -0.89570
H2358       H  0.59955687  0.88132589  0.72983044     0.18120
H2359       H  0.63372406  0.83742298  0.63746386     0.18110
N2360       N  0.57958742  0.81692824  0.64383747    -0.88600
H2361       H  0.64363633  0.91207478  0.74122853     0.35490
H2362       H  0.65987645  0.94354526  0.71579932     0.40590
H2363       H  0.57359371  0.77944676  0.65040103     0.40210
H2364       H  0.58991694  0.81152475  0.62528103     0.35090
C2365       C  0.87720864  0.18012597  0.67309083    -0.26640
C2366       C  0.89279468  0.14898208  0.69142574    -0.14710
C2367       C  0.87957031  0.10401288  0.70311582     0.35920
C2368       C  0.85130956  0.09271584  0.69623944    -0.26080
C2369       C  0.83582502  0.12523389  0.67834724    -0.15320
C2370       C  0.84911397  0.16987106  0.66694843     0.37010
N2371       N  0.83491695  0.20523234  0.64840728    -0.89570
H2372       H  0.88674417  0.21485329  0.66412498     0.18120
H2373       H  0.84179717  0.05692573  0.70397878     0.18110
N2374       N  0.89354742  0.06935539  0.72203141    -0.88600
H2375       H  0.83540651  0.24290239  0.65708557     0.35490
H2376       H  0.81367876  0.19594809  0.64630226     0.40590
H2377       H  0.91441400  0.07995716  0.72497886     0.40210
H2378       H  0.89393752  0.03171366  0.71332596     0.35090
C2379       C  0.59888857  0.09968223  0.69903519    -0.26640
C2380       C  0.58630636  0.14197936  0.68498466    -0.14710
C2381       C  0.60277784  0.17298818  0.66728384     0.35920
C2382       C  0.63135085  0.16203521  0.66436118    -0.26080
C2383       C  0.64405722  0.11986035  0.67808638    -0.15320
C2384       C  0.62767349  0.08781252  0.69540376     0.37010
N2385       N  0.64001663  0.04245180  0.70833350    -0.89570
H2386       H  0.58658446  0.07719907  0.71346053     0.18120
H2387       H  0.64359865  0.18499388  0.65004257     0.18110
N2388       N  0.59037918  0.21688408  0.65293344    -0.88600
H2389       H  0.62503575  0.02250428  0.71993046     0.35490
H2390       H  0.65531577  0.05596141  0.72200342     0.40590
H2391       H  0.57534694  0.20178001  0.63943381     0.40210
H2392       H  0.60533045  0.23633911  0.64108352     0.35090
C2393       C  0.79839343  0.71824397  0.57564935    -0.26640
C2394       C  0.79040489  0.69295686  0.55129392    -0.14710
C2395       C  0.78481329  0.72458013  0.52822979     0.35920
C2396       C  0.78573188  0.77972762  0.52999422    -0.26080
C2397       C  0.79318286  0.80518348  0.55417470    -0.15320
C2398       C  0.79976117  0.77399254  0.57743323     0.37010
N2399       N  0.80723918  0.79859849  0.60285408    -0.89570
H2400       H  0.80339260  0.69444133  0.59339611     0.18120
H2401       H  0.78119961  0.80308190  0.51196632     0.18110
N2402       N  0.77974236  0.70061656  0.50241733    -0.88600
H2403       H  0.81231745  0.77013110  0.61753037     0.35490
H2404       H  0.78943297  0.81824019  0.61003204     0.40590
H2405       H  0.79862489  0.68289260  0.49679747     0.40210
H2406       H  0.77469342  0.72927343  0.98799853     0.35090
C2407       C  0.82033921  0.21909043  0.56186109    -0.26640
C2408       C  0.79447393  0.19425718  0.55680067    -0.14710
C2409       C  0.77064091  0.22620492  0.55268273     0.35920
C2410       C  0.77304178  0.28111966  0.55120211    -0.26080
C2411       C  0.79871168  0.30606649  0.55512069    -0.15320
C2412       C  0.82271928  0.27458384  0.56111295     0.37010
N2413       N  0.84983394  0.29735033  0.56554127    -0.89570
H2414       H  0.83888913  0.19531818  0.56563982     0.18120
H2415       H  0.75446139  0.30483988  0.54733159     0.18110
N2416       N  0.74359126  0.20286626  0.55093353    -0.88600
H2417       H  0.84879435  0.32199301  0.58258596     0.35490
H2418       H  0.85511286  0.31979509  0.54842923     0.40590
H2419       H  0.73940450  0.18644984  0.57001719     0.40210
H2420       H  0.72879986  0.23214944  0.54695922     0.35090
C2421       C  0.77284682  0.77287561  0.93756798    -0.26640
C2422       C  0.79654560  0.79942199  0.94796702    -0.14710
C2423       C  0.82106982  0.77028099  0.95393861     0.35920
C2424       C  0.82098204  0.71502690  0.95084848    -0.26080
C2425       C  0.79679757  0.68800088  0.94201426    -0.15320
C2426       C  0.77291694  0.71739468  0.93422894     0.37010
N2427       N  0.74930170  0.69093154  0.92222037    -0.89570
H2428       H  0.75447240  0.79554015  0.93165970     0.18120
H2429       H  0.83952785  0.69263690  0.95651695     0.18110
N2430       N  0.84573210  0.79677025  0.96393342    -0.88600
H2431       H  0.73344584  0.71801043  0.91743342     0.35490
H2432       H  0.74132257  0.66504982  0.93679028     0.40590
H2433       H  0.85327214  0.82065351  0.94822018     0.40210
H2434       H  0.86164279  0.76951667  0.96831005     0.35090
C2435       C  0.79727253  0.21833946  0.92385435    -0.26640
C2436       C  0.80141183  0.19084685  0.94848499    -0.14710
C2437       C  0.80455147  0.22011773  0.97271519     0.35920
C2438       C  0.80226570  0.27532394  0.97228709    -0.26080
C2439       C  0.79828979  0.30293101  0.94768912    -0.15320
C2440       C  0.79605746  0.27383893  0.92305802     0.37010
N2441       N  0.79188269  0.29886326  0.89700933    -0.89570
H2442       H  0.79460721  0.19652741  0.90502973     0.18120
H2443       H  0.80492050  0.29694694  0.99119647     0.18110
N2444       N  0.81114729  0.19460133  0.99789723    -0.88600
H2445       H  0.80981392  0.29186207  0.88535009     0.35490
H2446       H  0.78975103  0.33967854  0.89880805     0.40590
H2447       H  0.82999611  0.17395871  0.99552985     0.40210
H2448       H  0.79535666  0.16728527  0.50182199     0.35090
C2449       C  0.91490886  0.67095641  0.86807535    -0.26640
C2450       C  0.93305510  0.63534451  0.85481452    -0.14710
C2451       C  0.95005321  0.60194115  0.87122509     0.35920
C2452       C  0.94660477  0.60193807  0.89990009    -0.26080
C2453       C  0.92597210  0.63319769  0.91236618    -0.15320
C2454       C  0.91151630  0.67081787  0.89638220     0.37010
N2455       N  0.89154352  0.70689595  0.90807399    -0.89570
H2456       H  0.90210134  0.69830380  0.85655745     0.18120
H2457       H  0.95828096  0.57415513  0.91227064     0.18110
N2458       N  0.97001790  0.56697749  0.85888392    -0.88600
H2459       H  0.89831482  0.74515261  0.90363177     0.35490
H2460       H  0.89151475  0.70419663  0.92934155     0.40590
H2461       H  0.95869380  0.53887064  0.84779827     0.40210
H2462       H  0.98138288  0.54641447  0.87380339     0.35090
C2463       C  0.94470603  0.62900352  0.63430256    -0.26640
C2464       C  0.92361578  0.64589538  0.65228352    -0.14710
C2465       C  0.89866776  0.66735455  0.64103942     0.35920
C2466       C  0.89518053  0.66915719  0.61265520    -0.26080
C2467       C  0.91401614  0.64350502  0.59509009    -0.15320
C2468       C  0.93977159  0.62557290  0.60583201     0.37010
N2469       N  0.95998795  0.60150360  0.58816993    -0.89570
H2470       H  0.96475164  0.61784694  0.64263485     0.18120
H2471       H  0.87564486  0.68454510  0.60438237     0.18110
N2472       N  0.87613790  0.68456066  0.65831888    -0.88600
H2473       H  0.97726578  0.58841732  0.59944521     0.35490
H2474       H  0.96725665  0.63069682  0.57490803     0.40590
H2475       H  0.86858768  0.65140285  0.66861850     0.40210
H2476       H  0.85935658  0.69943209  0.64678826     0.35090
C2477       C  0.92433417  0.34120690  0.89957061    -0.26640
C2478       C  0.93325363  0.38473534  0.91487659    -0.14710
C2479       C  0.94893225  0.42448776  0.90167827     0.35920
C2480       C  0.95485288  0.42030442  0.87369502    -0.26080
C2481       C  0.94404423  0.37867629  0.85790242    -0.15320
C2482       C  0.92919859  0.33809302  0.87139063     0.37010
N2483       N  0.91790032  0.29444112  0.85652962    -0.89570
H2484       H  0.91135422  0.31140388  0.90911153     0.18120
H2485       H  0.96667365  0.45139773  0.86402117     0.18110
N2486       N  0.95744014  0.47127364  0.91575513    -0.88600
H2487       H  0.89616452  0.29447112  0.85938710     0.35490
H2488       H  0.92607817  0.25969577  0.86493696     0.40590
H2489       H  0.96992077  0.46043600  0.93243865     0.40210
H2490       H  0.93947797  0.49027064  0.92301080     0.35090
C2491       C  0.92950543  0.44963591  0.61670222    -0.26640
C2492       C  0.92710977  0.40375347  0.60073739    -0.14710
C2493       C  0.93163890  0.35423605  0.61308506     0.35920
C2494       C  0.93765677  0.35149575  0.64127674    -0.26080
C2495       C  0.93862929  0.39726377  0.65750163    -0.15320
C2496       C  0.93493386  0.44691443  0.64496670     0.37010
N2497       N  0.93412420  0.49395342  0.66129572    -0.89570
H2498       H  0.92492902  0.48756439  0.60742069     0.18120
H2499       H  0.94076687  0.31331749  0.65080236     0.18110
N2500       N  0.92920373  0.30686734  0.59713062    -0.88600
H2501       H  0.92857588  0.52647943  0.64931964     0.35490
H2502       H  0.95443019  0.50113985  0.66844136     0.40590
H2503       H  0.90828858  0.30344053  0.59080073     0.40210
H2504       H  0.93353459  0.27371087  0.60915243     0.35090
C2505       C  0.67575830  0.72531239  0.93698830    -0.26640
C2506       C  0.69058405  0.69862046  0.95780477    -0.14710
C2507       C  0.70448628  0.72953365  0.97787196     0.35920
C2508       C  0.70305410  0.78456338  0.97684284    -0.26080
C2509       C  0.68915771  0.81114272  0.95578501    -0.15320
C2510       C  0.67518875  0.78100467  0.93562088     0.37010
N2511       N  0.66073847  0.80641774  0.91353309    -0.89570
H2512       H  0.66484925  0.70288285  0.92140063     0.18120
H2513       H  0.71328953  0.80677265  0.99286444     0.17930
N2514       N  0.71985315  0.70570998  0.99975249    -0.88600
H2515       H  0.63977877  0.79427162  0.91382444     0.35490
H2516       H  0.66961345  0.79342356  0.89526318     0.40590
H2517       H  0.70529854  0.68514494  0.01110018     0.40210
H2518       H  0.72796558  0.73415977  0.51303823     0.35090
C2519       C  0.71482567  0.28660775  0.97022651    -0.26640
C2520       C  0.69757021  0.31293016  0.95132733    -0.14710
C2521       C  0.68248599  0.28175835  0.93220702     0.35920
C2522       C  0.68392408  0.22624520  0.93358599    -0.26080
C2523       C  0.70015060  0.20000636  0.95362909    -0.15320
C2524       C  0.71602718  0.23178628  0.97180345     0.37010
N2525       N  0.73349627  0.21041911  0.99266697    -0.89570
H2526       H  0.72726889  0.30832509  0.98487245     0.18120
H2527       H  0.67198815  0.20354409  0.91883224     0.18110
N2528       N  0.66564129  0.30488220  0.91108460    -0.88600
H2529       H  0.75036278  0.19143880  0.48348676     0.35490
H2530       H  0.72151747  0.18448347  0.00430411     0.40590
H2531       H  0.67809185  0.33102696  0.89995858     0.40210
H2532       H  0.64922242  0.32565535  0.92010671     0.35090
C2533       C  0.66724715  0.77614513  0.54011899    -0.26640
C2534       C  0.68796155  0.80453661  0.55408711    -0.14710
C2535       C  0.70710332  0.77723989  0.57114007     0.35920
C2536       C  0.70605231  0.72171509  0.57270757    -0.26080
C2537       C  0.68549410  0.69309328  0.55849919    -0.15320
C2538       C  0.66563192  0.72095189  0.54206583     0.37010
N2539       N  0.64458538  0.69483866  0.52583283    -0.89570
H2540       H  0.65216422  0.79708280  0.52747032     0.18120
H2541       H  0.72110730  0.70069592  0.58534484     0.18110
N2542       N  0.72664226  0.80620697  0.58776678    -0.88600
H2543       H  0.62498482  0.70438389  0.53397218     0.35490
H2544       H  0.64649435  0.65391393  0.52635491     0.40590
H2545       H  0.74010382  0.82638411  0.57474401     0.40210
H2546       H  0.73909870  0.78044568  0.59931601     0.35090
C2547       C  0.68675521  0.27632050  0.57964652    -0.26640
C2548       C  0.68157068  0.30318644  0.55516773    -0.14710
C2549       C  0.67297377  0.27366175  0.53196585     0.35920
C2550       C  0.67332720  0.21809618  0.53307717    -0.26080
C2551       C  0.68063658  0.19089862  0.55705655    -0.15320
C2552       C  0.68681025  0.22089411  0.58105487     0.37010
N2553       N  0.69537225  0.19738219  0.60657908    -0.89570
H2554       H  0.69212583  0.29873621  0.59777077     0.18120
H2555       H  0.66771743  0.19589046  0.51495826     0.18110
N2556       N  0.66285167  0.29819431  0.50732940    -0.88600
H2557       H  0.71441644  0.21459179  0.61244339     0.35490
H2558       H  0.70024004  0.15762144  0.60445222     0.40590
H2559       H  0.66160018  0.33906889  0.50917503     0.40210
H2560       H  0.64224558  0.28539810  0.50408920     0.35090
C2561       C  0.55175036  0.55586260  0.86080335    -0.26640
C2562       C  0.54077809  0.60287034  0.85028270    -0.14710
C2563       C  0.53567164  0.64562468  0.86818990     0.35920
C2564       C  0.54387273  0.64176767  0.89589044    -0.26080
C2565       C  0.55705755  0.59615893  0.90588428    -0.15320
C2566       C  0.56020499  0.55224534  0.88829244     0.37010
N2567       N  0.57370767  0.50520042  0.89811450    -0.89570
H2568       H  0.55518121  0.52282521  0.84717845     0.18120
H2569       H  0.54148263  0.67547344  0.90926639     0.18110
N2570       N  0.52225980  0.69275788  0.85821321    -0.88600
H2571       H  0.57514505  0.47698507  0.88264345     0.35490
H2572       H  0.56095376  0.48954336  0.91334768     0.40590
H2573       H  0.53621711  0.71157557  0.84505871     0.40210
H2574       H  0.01864920  0.71908675  0.87423365     0.35090
C2575       C  0.53483425  0.58138912  0.60385185    -0.26640
C2576       C  0.55352301  0.61942806  0.59393521    -0.14710
C2577       C  0.56331028  0.65895000  0.61192056     0.35920
C2578       C  0.55542521  0.65774513  0.63941327    -0.26080
C2579       C  0.53817383  0.61770003  0.65006331    -0.15320
C2580       C  0.52713316  0.57961184  0.63166049     0.37010
N2581       N  0.51042209  0.53632994  0.64126752    -0.89570
H2582       H  0.52803312  0.55012084  0.59028119     0.18120
H2583       H  0.56388174  0.68775960  0.65280836     0.18110
N2584       N  0.58216331  0.69985185  0.60321475    -0.88600
H2585       H  0.00684432  0.50906800  0.62563785     0.35490
H2586       H  0.49068244  0.55055975  0.64618366     0.40590
H2587       H  0.58559653  0.69853598  0.58220464     0.40210
H2588       H  0.60151765  0.69349378  0.61285977     0.35090
C2589       C  0.58404346  0.34021920  0.89383468    -0.26640
C2590       C  0.56576723  0.36779271  0.91106877    -0.14710
C2591       C  0.54064769  0.38842030  0.89961415     0.35920
C2592       C  0.53705344  0.38837204  0.87096709    -0.26080
C2593       C  0.55783489  0.36789760  0.85354980    -0.15320
C2594       C  0.58168665  0.34351687  0.86543533     0.37010
N2595       N  0.60458841  0.32544784  0.84887501    -0.89570
H2596       H  0.60275114  0.32242344  0.90251606     0.18120
H2597       H  0.51806206  0.40518906  0.86232311     0.18110
N2598       N  0.51865424  0.41014475  0.91603090    -0.88600
H2599       H  0.62047524  0.30843554  0.86080378     0.35490
H2600       H  0.61335943  0.35852103  0.83946211     0.40590
H2601       H  0.52276512  0.40469026  0.93671151     0.40210
H2602       H  0.00087336  0.38722523  0.91221732     0.35090
C2603       C  0.55477544  0.43969958  0.61288708    -0.26640
C2604       C  0.55391266  0.39414261  0.59646029    -0.14710
C2605       C  0.54785147  0.34517257  0.60881427     0.35920
C2606       C  0.54394607  0.34290753  0.63720449    -0.26080
C2607       C  0.54706464  0.38798301  0.65378362    -0.15320
C2608       C  0.55287594  0.43690423  0.64138111     0.37010
N2609       N  0.55956830  0.48341340  0.65692859    -0.89570
H2610       H  0.56078276  0.47697094  0.60379415     0.18120
H2611       H  0.53978409  0.30496310  0.64654384     0.18110
N2612       N  0.54742720  0.29671401  0.59357867    -0.88600
H2613       H  0.58035452  0.49359955  0.65270872     0.35490
H2614       H  0.55851997  0.47710160  0.67790566     0.40590
H2615       H  0.55015245  0.30374864  0.57276773     0.40210
H2616       H  0.52739206  0.28043635  0.59556667     0.35090
loop_ 
_geom_bond_atom_site_label_1 
_geom_bond_atom_site_label_2 
_geom_bond_distance 
_geom_bond_site_symmetry_2 
_ccdc_geom_bond_type 
C1           N19   1.338       .  A
C1           C38   1.478       .  S
C1          C642   1.478       .  S
N2           N19   1.314       .  A
N2           N24   1.320       .  A
N2          Co39   2.064       .  S
C3           N28   1.333       .  A
C3           C41   1.453       .  S
C3           H48   1.082       .  S
H4           C45   1.082       .  S
C5           N29   1.335       .  A
C5            C9   1.465       .  S
C5           H34   1.079       .  S
Co6          N24   2.111       .  S
Co6          N46   2.120       .  S
Co6         N668   2.121   1_554  S
Co6         N676   2.122   1_554  S
Co6         Cl50   2.511       .  S
N7           C45   1.322       .  A
N7           N14   1.321       .  A
N7           Co8   2.058       .  S
Co8          N11   2.102       .  S
Co8          N28   2.069       .  S
Co8          N15   2.085       .  S
Co8        Cl704   2.388       .  S
C9           N47   1.357       .  A
C9          C558   1.501       .  S
N10          N17   1.317       .  A
N10          N40   1.331       .  A
N10        Co697   2.111       .  S
N11          N29   1.311       .  A
N11          N47   1.329       .  A
N12          C41   1.362       .  A
N12          N22   1.332       .  A
H13          C38   1.081       .  S
N14          N35   1.334       .  A
N14        Co660   2.121       .  S
N15          N33   1.314       .  A
N15          N20   1.328       .  A
C16          N20   1.355       .  A
C16          C44   1.469       .  S
C16         C544   1.505       .  S
N17          C32   1.341       .  A
N17         Co39   2.072       .  S
C18          N46   1.352       .  A
C18          C21   1.477       .  S
C18          H52   1.081       .  S
C21          N42   1.339       .  A
C21         C614   1.479       .  S
N22          N28   1.321       .  A
N22        Co660   2.122       .  S
N23          C49   1.342       .  A
N23          N25   1.314       .  A
N23         Co39   2.068       .  S
N24          C38   1.353       .  A
N25          N53   1.327       .  A
N25        Co697   2.104       .  S
H26          C49   1.080       .  S
H27          C44   1.070       .  S
N29         Co43   2.060       .  S
N30          N42   1.317       .  A
N30          N46   1.324       .  A
N30         Co39   2.076       .  S
C31          N35   1.364       .  A
C31          C45   1.449       .  S
C31         C628   1.492       .  S
C32          C51   1.448       .  S
C32          H36   1.079       .  S
N33          C44   1.333       .  A
N33         Co43   2.084       .  S
C37          N53   1.355       .  A
C37          C49   1.456       .  S
C37         C575   1.485       .  S
Co39        Cl50   2.397       .  S
N40          C51   1.357       .  A
C41         C603   1.489       .  S
Co43        N664   2.111       .  S
Co43        N679   2.104       .  S
Co43       Cl704   2.499       .  S
Cl50       Co662   2.388   1_554  S
Cl50       Co697   2.499       .  S
C51         C586   1.488       .  S
C54          N72   1.344       .  A
C54          C91   1.464       .  S
C54         C449   1.485       .  S
N55          N72   1.325       .  A
N55          N77   1.317       .  A
N55         Co92   2.064       .  S
C56          N81   1.339       .  A
C56          C94   1.452       .  S
C56         H101   1.080       .  S
H57          C98   1.081       .  S
C58          N82   1.352       .  A
C58          C62   1.480       .  S
C58          H87   1.081       .  S
Co59         N67   2.101       .  S
Co59         N75   2.125       .  S
Co59        N731   2.102       .  S
Co59        N753   2.091       .  S
Co59       Cl757   2.499       .  S
N60          C98   1.343       .  A
N60          N67   1.315       .  A
N60         Co61   2.079       .  S
Co61         N64   2.063       .  S
Co61         N81   2.072       .  S
Co61         N68   2.074       .  S
Co61       Cl757   2.394       .  S
C62         N100   1.337       .  A
C62         C516   1.477       .  S
N63          N70   1.320       .  A
N63          N93   1.332       .  A
N63         Co96   2.118       .  S
N64          N82   1.324       .  A
N64         N100   1.315       .  A
N65          C94   1.362       .  A
N65          N75   1.332       .  A
H66          C91   1.079       .  S
N67          N88   1.328       .  A
N68          N86   1.323       .  A
N68          N73   1.315       .  A
C69          N73   1.338       .  A
C69          C97   1.475       .  S
C69         C491   1.476       .  S
N70          C85   1.331       .  A
N70         Co92   2.064       .  S
C71          N99   1.340       .  A
C71          C74   1.472       .  S
C71         H105   1.074       .  S
C74          N95   1.349       .  A
C74         C432   1.500       .  S
N75          N81   1.316       .  A
N76         C102   1.320       .  A
N76          N78   1.319       .  A
N76         Co92   2.046       .  S
N77          C91   1.343       .  A
N77        Co713   2.102   1_554  S
N78         N106   1.336       .  A
N78         Co96   2.131       .  S
H79         C102   1.082       .  S
H80          C97   1.081       .  S
N82        Co750   2.124       .  S
N83          N95   1.327       .  A
N83          N99   1.313       .  A
N83         Co92   2.077       .  S
C84          N88   1.353       .  A
C84          C98   1.459       .  S
C84         C477   1.487       .  S
C85         C104   1.448       .  S
C85          H89   1.082       .  S
N86          C97   1.354       .  A
N86        Co750   2.112       .  S
C90         N106   1.368       .  A
C90         C102   1.442       .  S
C90         C505   1.488       .  S
Co92       Cl103   2.390       .  S
N93         C104   1.362       .  A
C94         C463   1.491       .  S
Co96        N736   2.124   1_554  S
Co96        N740   2.112   1_554  S
Co96       Cl103   2.516       .  S
N99        Co713   2.091   1_554  S
Cl103      Co713   2.499   1_554  S
Cl103      Co715   2.394   1_554  S
C104        C530   1.481       .  S
C107        N125   1.331       .  A
C107        C144   1.475       .  S
C107        C421   1.467       .  S
N108        N125   1.311       .  A
N108        N130   1.323       .  A
N108       Co145   2.053   1_545  S
C109        N134   1.325       .  A
C109        C147   1.442       .  S
C109        H154   1.082       .  S
H110        C151   1.082       .  S
C111        N135   1.339       .  A
C111        C115   1.471       .  S
C111        H140   1.076       .  S
Co112       N130   2.110   1_565  S
Co112       N120   2.130   1_565  S
Co112       N152   2.121       .  S
Co112       N128   2.103       .  S
Co112      Cl156   2.526       .  S
N113        C151   1.325       .  A
N113        N120   1.323       .  A
N113       Co114   2.047   1_545  S
Co114       N117   2.072   1_565  S
Co114       N134   2.048       .  S
Co114       N121   2.069       .  S
Co114      Cl156   2.379       .  S
C115        N153   1.347       .  A
C115        C446   1.496       .  S
N116        N123   1.315       .  A
N116        N146   1.332       .  A
N116       Co149   2.127   1_545  S
N117        N135   1.315       .  A
N117        N153   1.328       .  A
N118        C147   1.357       .  A
N118        N128   1.329       .  A
H119        C144   1.081       .  S
N120        N141   1.336       .  A
N121        N139   1.315       .  A
N121        N126   1.326       .  A
C122        N126   1.347       .  A
C122        C150   1.466       .  S
C122        C435   1.492       .  S
N123        C138   1.339       .  A
N123       Co145   2.060   1_545  S
C124        N152   1.358       .  A
C124        C127   1.484       .  S
C124        H158   1.081       .  S
C127        N148   1.334       .  A
C127        C393   1.485       .  S
N128        N134   1.322       .  A
N129        C155   1.339       .  A
N129        N131   1.314       .  A
N129       Co145   2.061       .  S
N130        C144   1.354       .  A
N131        N159   1.330       .  A
N131       Co149   2.115       .  S
H132        C155   1.080       .  S
H133        C150   1.078       .  S
N135       Co149   2.095   1_545  S
N136        N148   1.308       .  A
N136        N152   1.321       .  A
N136       Co145   2.050       .  S
C137        N141   1.364       .  A
C137        C151   1.434       .  S
C137        C407   1.478       .  S
C138        C157   1.450       .  S
C138        H142   1.080       .  S
N139        C150   1.343       .  A
N139       Co149   2.096       .  S
C143        N159   1.357       .  A
C143        C155   1.449       .  S
C143        C572   1.481       .  S
Co145      Cl156   2.386       .  S
N146        C157   1.362       .  A
C147        C376   1.475       .  S
Co149      Cl156   2.488       .  S
C157        C589   1.493       .  S
C160        N178   1.354       .  A
C160        C197   1.473       .  S
C160        C561   1.508       .  S
N161        N178   1.327       .  A
N161        N183   1.311       .  A
N161       Co198   2.079       .  S
C162        N187   1.339       .  A
C162        C200   1.449       .  S
C162        H207   1.080       .  S
H163        C204   1.079       .  S
C164        N188   1.353       .  A
C164        C168   1.470       .  S
C164        H193   1.081       .  S
Co165       N183   2.080   1_565  S
Co165       N173   2.113   1_565  S
Co165       N205   2.074       .  S
Co165       N181   2.109       .  S
Co165      Cl209   2.493       .  S
N166        C204   1.343       .  A
N166        N173   1.315       .  A
N166       Co167   2.072   1_545  S
Co167       N170   2.053   1_565  S
Co167       N187   2.063       .  S
Co167       N174   2.056       .  S
Co167      Cl209   2.379       .  S
C168        N206   1.330       .  A
C168        C351   1.461       .  S
N169        N176   1.320       .  A
N169        N199   1.335       .  A
N169       Co202   2.121       .  S
N170        N188   1.324       .  A
N170        N206   1.311       .  A
N171        C200   1.357       .  A
N171        N181   1.331       .  A
H172        C197   1.068       .  S
N173        N194   1.330       .  A
N174        N192   1.323       .  A
N174        N179   1.312       .  A
C175        N179   1.335       .  A
C175        C203   1.476       .  S
C175        C320   1.484       .  S
N176        C191   1.321       .  A
N176       Co198   2.042       .  S
C177        N205   1.335       .  A
C177        C180   1.464       .  S
C177        H211   1.077       .  S
C180        N201   1.351       .  A
C180        C547   1.491       .  S
N181        N187   1.314       .  A
N182        C208   1.326       .  A
N182        N184   1.322       .  A
N182       Co198   2.056   1_565  S
N183        C197   1.335       .  A
N184        N212   1.330       .  A
N184       Co202   2.106   1_565  S
H185        C208   1.081       .  S
H186        C203   1.081       .  S
N188       Co202   2.100       .  S
N189        N201   1.327       .  A
N189        N205   1.314       .  A
N189       Co198   2.078   1_565  S
C190        N194   1.355       .  A
C190        C204   1.454       .  S
C190        C474   1.493       .  S
C191        C210   1.439       .  S
C191        H195   1.082       .  S
N192        C203   1.351       .  A
N192       Co202   2.111   1_565  S
C196        N212   1.357       .  A
C196        C208   1.443       .  S
C196        C334   1.474       .  S
Co198      Cl209   2.373   1_545  S
N199        C210   1.364       .  A
C200        C460   1.485       .  S
Co202      Cl209   2.519   1_545  S
C210        C365   1.483       .  S
C213        N231   1.330       .  A
C213        C250   1.481       .  S
C213        C418   1.473       .  S
N214        N231   1.308       .  A
N214        N236   1.322       .  A
N214       Co251   2.045       .  S
C215        N240   1.318       .  A
C215        C253   1.441       .  S
C215        H260   1.082       .  S
H216        C257   1.082       .  S
C217        N241   1.345       .  A
C217        C221   1.462       .  S
C217        H246   1.079       .  S
Co218       N226   2.127       .  S
Co218       N234   2.123       .  S
Co218      N1544   2.123       .  S
Co218      N1566   2.119       .  S
Co218      Cl262   2.529       .  S
N219        C257   1.326       .  A
N219        N226   1.324       .  A
N219       Co220   2.060       .  S
Co220       N223   2.085       .  S
Co220       N240   2.047       .  S
Co220       N227   2.086       .  S
Co220      Cl262   2.365       .  S
C221        N259   1.352       .  A
C221        C533   1.488       .  S
N222        N229   1.314       .  A
N222        N252   1.329       .  A
N222      Co1563   2.102   1_455  S
N223        N241   1.315       .  A
N223        N259   1.326       .  A
N224        C253   1.365       .  A
N224        N234   1.336       .  A
H225        C250   1.081       .  S
N226        N247   1.336       .  A
N227        N245   1.314       .  A
N227        N232   1.325       .  A
C228        N232   1.349       .  A
C228        C256   1.466       .  S
C228        C519   1.497       .  S
N229        C244   1.338       .  A
N229       Co251   2.056       .  S
C230        N258   1.357       .  A
C230        C233   1.477       .  S
C230        H264   1.081       .  S
C233        N254   1.330       .  A
C233        C362   1.469       .  S
N234        N240   1.321       .  A
N235        C261   1.333       .  A
N235        N237   1.313       .  A
N235       Co251   2.064       .  S
N236        C250   1.357       .  A
N236      Co1526   2.123   1_455  S
N237        N265   1.331       .  A
N237      Co1563   2.098   1_455  S
H238        C261   1.075       .  S
H239        C256   1.080       .  S
N241       Co255   2.088       .  S
N242        N254   1.310       .  A
N242        N258   1.323       .  A
N242       Co251   2.054       .  S
C243        N247   1.363       .  A
C243        C257   1.443       .  S
C243        C404   1.492       .  S
C244        C263   1.447       .  S
C244        H248   1.079       .  S
N245        C256   1.348       .  A
N245       Co255   2.085       .  S
C249        N265   1.357       .  A
C249        C261   1.455       .  S
C249        C631   1.494       .  S
Co251     Cl1570   2.371   1_455  S
N252        C263   1.354       .  A
C253        C348   1.488       .  S
Co255      N1530   2.102       .  S
Co255      N1545   2.098       .  S
Co255      Cl262   2.515       .  S
N258      Co1526   2.119   1_455  S
Cl262     Co1559   2.371       .  S
C263        C645   1.480       .  S
C266        N284   1.354       .  A
C266        C303   1.471       .  S
C266        C617   1.504       .  S
N267        N284   1.324       .  A
N267        N289   1.314       .  A
N267       Co304   2.091       .  S
C268        N293   1.334       .  A
C268        C306   1.453       .  S
C268        H313   1.076       .  S
H269        C310   1.076       .  S
C270        N294   1.355       .  A
C270        C274   1.481       .  S
C270        H299   1.081       .  S
Co271       N279   2.119       .  S
Co271       N287   2.116       .  S
Co271      N1597   2.087       .  S
Co271      N1619   2.090       .  S
Co271      Cl315   2.503       .  S
N272        C310   1.333       .  A
N272        N279   1.312       .  A
N272       Co273   2.048       .  S
Co273       N276   2.064       .  S
Co273       N293   2.051       .  S
Co273       N280   2.066       .  S
Co273      Cl315   2.369       .  S
C274        N312   1.333       .  A
C274        C379   1.485       .  S
N275        N282   1.324       .  A
N275        N305   1.332       .  A
N275      Co1616   2.111   1_455  S
N276        N294   1.319       .  A
N276        N312   1.308       .  A
N277        C306   1.360       .  A
N277        N287   1.332       .  A
H278        C303   1.076   1_655  S
N279        N300   1.334       .  A
N280        N298   1.320       .  A
N280        N285   1.311       .  A
C281        N285   1.336       .  A
C281        C309   1.479       .  S
C281        C323   1.485       .  S
N282        C297   1.327       .  A
N282       Co304   2.059       .  S
C283        N311   1.347       .  A
C283        C286   1.461       .  S
C283        H317   1.080   1_455  S
C286        N307   1.349       .  A
C286        C600   1.484       .  S
N287        N293   1.312       .  A
N288        C314   1.328       .  A
N288        N290   1.323       .  A
N288       Co304   2.063       .  S
N289        C303   1.347       .  A
N289      Co1579   2.087   1_455  S
N290        N318   1.329       .  A
N290      Co1616   2.105   1_455  S
H291        C314   1.080       .  S
H292        C309   1.081       .  S
N294       Co308   2.098       .  S
N295        N307   1.325       .  A
N295        N311   1.315       .  A
N295       Co304   2.080       .  S
C296        N300   1.361       .  A
C296        C310   1.447       .  S
C296        C502   1.495       .  S
C297        C316   1.439       .  S
C297        H301   1.082       .  S
N298        C309   1.355       .  A
N298       Co308   2.104       .  S
C302        N318   1.357       .  A
C302        C314   1.448       .  S
C302        C337   1.481       .  S
Co304     Cl1623   2.370   1_455  S
N305        C316   1.358       .  A
C306        C488   1.503       .  S
Co308      N1583   2.111       .  S
Co308      N1598   2.105       .  S
Co308      Cl315   2.521       .  S
N311      Co1579   2.090   1_455  S
Cl315     Co1612   2.370       .  S
C316        C390   1.469       .  S
C319        H326   1.084       .  S
C319        C320   1.418       .  A
C319        C324   1.403       .  A
C320        C321   1.405       .  A
C321        C322   1.398       .  A
C321        N328   1.438       .  S
C322        H327   1.080       .  S
C322        C323   1.414       .  A
C323        C324   1.407       .  A
C324        N325   1.437       .  S
N325        H329   1.046       .  S
N325        H330   1.043       .  S
N328        H331   1.041       .  S
N328        H332   1.046       .  S
C333        H340   1.084       .  S
C333        C334   1.393       .  A
C333        C338   1.404       .  A
C334        C335   1.416       .  A
C335        C336   1.400       .  A
C335        N342   1.433       .  S
C336        H341   1.084       .  S
C336        C337   1.396       .  A
C337        C338   1.424       .  A
C338        N339   1.437       .  S
N339        H343   1.046       .  S
N339        H344   1.045       .  S
N342        H345   1.045       .  S
N342        H346   1.046       .  S
C347        H354   1.078       .  S
C347        C348   1.407       .  A
C347        C352   1.392       .  A
C348        C349   1.412       .  A
C349        C350   1.417       .  A
C349        N356   1.436       .  S
C350        H355   1.084       .  S
C350        C351   1.411       .  A
C351        C352   1.400       .  A
C352        N353   1.440       .  S
N353        H357   1.046       .  S
N353        H358   1.045       .  S
N356        H359   1.044       .  S
N356        H360   1.046       .  S
C361        H368   1.084       .  S
C361        C362   1.408       .  A
C361        C366   1.417       .  A
C362        C363   1.408       .  A
C363        C364   1.397       .  A
C363        N370   1.441       .  S
C364        H369   1.085       .  S
C364        C365   1.405       .  A
C365        C366   1.414       .  A
C366        N367   1.437       .  S
N367        H371   1.046       .  S
N367        H372   1.046       .  S
N370        H373   1.044       .  S
N370        H374   1.046       .  S
C375        H382   1.084       .  S
C375        C376   1.414       .  A
C375        C380   1.403       .  A
C376        C377   1.393       .  A
C377        C378   1.398       .  A
C377        N384   1.437       .  S
C378        H383   1.079       .  S
C378        C379   1.418       .  A
C379        C380   1.410       .  A
C380        N381   1.437       .  S
N381        H385   1.046       .  S
N381        H386   1.041       .  S
N384        H387   1.045       .  S
N384        H388   1.045       .  S
C389        H396   1.083       .  S
C389        C390   1.409       .  A
C389        C394   1.416       .  A
C390        C391   1.402       .  A
C391        C392   1.396       .  A
C391        N398   1.439       .  S
C392        H397   1.084       .  S
C392        C393   1.409       .  A
C393        C394   1.413       .  A
C394        N395   1.436       .  S
N395        H399   1.046       .  S
N395        H400   1.044       .  S
N398        H401   1.044       .  S
N398        H402   1.046       .  S
C403        H410   1.085       .  S
C403        C404   1.404       .  A
C403        C408   1.395       .  A
C404        C405   1.425       .  A
C405        C406   1.416       .  A
C405        N412   1.437       .  S
C406        H411   1.084       .  S
C406        C407   1.408       .  A
C407        C408   1.414       .  A
C408        N409   1.441       .  S
N409        H413   1.046       .  S
N409        H414   1.044       .  S
N412        H415   1.039       .  S
N412        H416   1.046       .  S
C417        H424   1.083       .  S
C417        C418   1.405       .  A
C417        C422   1.415       .  A
C418        C419   1.413       .  A
C419        C420   1.397       .  A
C419        N426   1.440       .  S
C420        H425   1.085       .  S
C420        C421   1.398       .  A
C421        C422   1.414       .  A
C422        N423   1.436       .  S
N423        H427   1.046       .  S
N423        H428   1.045       .  S
N426        H429   1.045       .  S
N426        H430   1.046       .  S
C431        H438   1.083       .  S
C431        C432   1.406       .  A
C431        C436   1.417       .  A
C432        C433   1.409       .  A
C433        C434   1.401       .  A
C433        N440   1.423       .  S
C434        H439   1.084       .  S
C434        C435   1.394       .  A
C435        C436   1.420       .  A
C436        N437   1.437       .  S
N437        H441   1.046       .  S
N437        H442   1.045       .  S
N440        H443   1.043   1_554  S
N440       H1098   1.040   1_554  S
H444       N1094   1.040       .  S
C445        H452   1.083       .  S
C445        C446   1.405       .  A
C445        C450   1.412       .  A
C446        C447   1.407       .  A
C447        C448   1.399       .  A
C447        N454   1.421       .  S
C448        H453   1.085       .  S
C448        C449   1.390       .  A
C449        C450   1.422       .  A
C450        N451   1.431       .  S
N451        H455   1.045       .  S
N451        H456   1.045       .  S
N454        H457   1.044       .  S
N454        H458   1.040       .  S
C459        H466   1.084       .  S
C459        C460   1.408       .  A
C459        C464   1.416       .  A
C460        C461   1.410       .  A
C461        C462   1.409       .  A
C461        N468   1.438       .  S
C462        H467   1.084       .  S
C462        C463   1.407       .  A
C463        C464   1.409       .  A
C464        N465   1.434       .  S
N465        H469   1.045       .  S
N465        H470   1.043       .  S
N468        H471   1.045       .  S
N468        H472   1.046       .  S
C473        H480   1.083       .  S
C473        C474   1.406       .  A
C473        C478   1.408       .  A
C474        C475   1.408       .  A
C475        C476   1.403       .  A
C475        N482   1.426       .  S
C476        H481   1.084       .  S
C476        C477   1.405       .  A
C477        C478   1.419       .  A
C478        N479   1.438       .  S
N479        H483   1.045       .  S
N479        H484   1.043       .  S
N482        H485   1.045       .  S
N482       H1140   1.042       .  S
H486       N1136   1.042   1_554  S
C487        H494   1.079       .  S
C487        C488   1.410       .  A
C487        C492   1.398       .  A
C488        C489   1.417       .  A
C489        C490   1.416       .  A
C489        N496   1.435       .  S
C490        H495   1.080       .  S
C490        C491   1.404       .  A
C491        C492   1.410       .  A
C492        N493   1.440       .  S
N493        H497   1.046       .  S
N493        H498   1.045       .  S
N496        H499   1.045       .  S
N496        H500   1.046       .  S
C501        H508   1.074       .  S
C501        C502   1.407       .  A
C501        C506   1.417       .  A
C502        C503   1.415       .  A
C503        C504   1.401       .  A
C503        N510   1.438       .  S
C504        H509   1.085       .  S
C504        C505   1.406       .  A
C505        C506   1.407       .  A
C506        N507   1.434       .  S
N507        H511   1.042       .  S
N507        H512   1.046       .  S
N510        H513   1.046       .  S
N510        H514   1.046       .  S
C515        H522   1.085       .  S
C515        C516   1.400       .  A
C515        C520   1.404       .  A
C516        C517   1.414       .  A
C517        C518   1.406       .  A
C517        N524   1.430       .  S
C518        H523   1.080       .  S
C518        C519   1.406       .  A
C519        C520   1.415       .  A
C520        N521   1.429       .  S
N521        H525   1.046       .  S
N521        H526   1.046       .  S
N524        H527   1.044       .  S
N524        H528   1.045       .  S
C529        H536   1.085       .  S
C529        C530   1.406       .  A
C529        C534   1.410       .  A
C530        C531   1.409       .  A
C531        C532   1.411       .  A
C531        N538   1.438       .  S
C532        H537   1.084       .  S
C532        C533   1.408       .  A
C533        C534   1.410       .  A
C534        N535   1.437       .  S
N535        H539   1.044       .  S
N535        H540   1.043       .  S
N538        H541   1.045       .  S
N538        H542   1.046       .  S
C543        H550   1.083       .  S
C543        C544   1.409       .  A
C543        C548   1.413       .  A
C544        C545   1.420       .  A
C545        C546   1.397       .  A
C545        N552   1.428       .  S
C546        H551   1.081       .  S
C546        C547   1.395       .  A
C547        C548   1.414       .  A
C548        N549   1.432       .  S
N549        H553   1.045       .  S
N549        H554   1.046       .  S
N552        H555   1.033       .  S
N552       H1210   1.045       .  S
H556       N1206   1.045   1_554  S
C557        H564   1.080       .  S
C557        C558   1.402       .  A
C557        C562   1.393       .  A
C558        C559   1.419       .  A
C559        C560   1.410       .  A
C559        N566   1.431       .  S
C560        H565   1.084       .  S
C560        C561   1.412       .  A
C561        C562   1.418       .  A
C562        N563   1.421       .  S
N563        H568   1.043       .  S
N563       H1221   1.040       .  S
N566        H569   1.046       .  S
N566        H570   1.043       .  S
H567       N1217   1.040       .  S
C571        H578   1.084       .  S
C571        C572   1.398       .  A
C571        C576   1.404       .  A
C572        C573   1.413       .  A
C573        C574   1.410       .  A
C573        N580   1.437       .  S
C574        H579   1.084       .  S
C574        C575   1.402       .  A
C575        C576   1.425       .  A
C576        N577   1.439       .  S
N577        H581   1.045       .  S
N577        H582   1.041       .  S
N580        H583   1.042       .  S
N580        H584   1.045       .  S
C585        H592   1.084       .  S
C585        C586   1.400       .  A
C585        C590   1.406       .  A
C586        C587   1.420       .  A
C587        C588   1.409       .  A
C587        N594   1.438       .  S
C588        H593   1.084       .  S
C588        C589   1.404       .  A
C589        C590   1.430       .  A
C590        N591   1.442       .  S
N591        H595   1.046       .  S
N591        H596   1.039       .  S
N594        H597   1.042       .  S
N594        H598   1.046       .  S
C599        H606   1.084       .  S
C599        C600   1.397       .  A
C599        C604   1.407       .  A
C600        C601   1.416       .  A
C601        C602   1.414       .  A
C601        N608   1.438       .  S
C602        H607   1.083       .  S
C602        C603   1.401       .  A
C603        C604   1.417       .  A
C604        N605   1.435       .  S
N605        H609   1.045       .  S
N605        H610   1.044       .  S
N608        H611   1.045       .  S
N608       H1920   1.046       .  S
H612       N1916   1.046       .  S
C613        H620   1.084       .  S
C613        C614   1.402       .  A
C613        C618   1.414       .  A
C614        C615   1.413       .  A
C615        C616   1.401       .  A
C615        N622   1.439       .  S
C616        H621   1.082       .  S
C616        C617   1.409       .  A
C617        C618   1.421       .  A
C618        N619   1.437       .  S
N619        H624   1.036   1_455  S
N619       H1931   1.045       .  S
N622        H625   1.044       .  S
N622        H626   1.046       .  S
H623       N1927   1.045       .  S
C627        H634   1.083       .  S
C627        C628   1.402       .  A
C627        C632   1.398       .  A
C628        C629   1.418       .  A
C629        C630   1.414       .  A
C629        N636   1.434       .  S
C630        H635   1.083       .  S
C630        C631   1.409       .  A
C631        C632   1.415       .  A
C632        N633   1.438       .  S
N633        H637   1.046       .  S
N633        H638   1.046       .  S
N636        H639   1.040       .  S
N636       H1948   1.044       .  S
H640       N1944   1.044       .  S
C641        H648   1.084       .  S
C641        C642   1.409       .  A
C641        C646   1.402       .  A
C642        C643   1.412       .  A
C643        C644   1.406       .  A
C643        N650   1.438       .  S
C644        H649   1.084       .  S
C644        C645   1.410       .  A
C645        C646   1.409       .  A
C646        N647   1.439       .  S
N647        H651   1.045       .  S
N647        H652   1.042       .  S
N650        H653   1.044       .  S
N650        H654   1.045       .  S
C655        N673   1.338       .  A
C655        C692   1.478       .  S
C655       C1296   1.478       .  S
N656        N673   1.314       .  A
N656        N678   1.320       .  A
N656       Co693   2.064       .  S
C657        N682   1.333       .  A
C657        C695   1.453       .  S
C657        H702   1.082       .  S
H658        C699   1.082       .  S
C659        N683   1.335       .  A
C659        C663   1.465       .  S
C659        H688   1.079       .  S
Co660       N678   2.111       .  S
Co660       N700   2.120       .  S
Co660      Cl704   2.511       .  S
N661        C699   1.322       .  A
N661        N668   1.321       .  A
N661       Co662   2.058       .  S
Co662       N665   2.102       .  S
Co662       N682   2.069       .  S
Co662       N669   2.085       .  S
C663        N701   1.357       .  A
C663       C1212   1.501       .  S
N664        N671   1.317       .  A
N664        N694   1.331       .  A
N665        N683   1.311       .  A
N665        N701   1.329       .  A
N666        C695   1.362       .  A
N666        N676   1.332       .  A
H667        C692   1.081       .  S
N668        N689   1.334       .  A
N669        N687   1.314       .  A
N669        N674   1.328       .  A
C670        N674   1.355       .  A
C670        C698   1.469       .  S
C670       C1198   1.505       .  S
N671        C686   1.341       .  A
N671       Co693   2.072       .  S
C672        N700   1.352       .  A
C672        C675   1.477       .  S
C672        H706   1.081       .  S
C675        N696   1.339       .  A
C675       C1268   1.479       .  S
N676        N682   1.321       .  A
N677        C703   1.342       .  A
N677        N679   1.314       .  A
N677       Co693   2.068       .  S
N678        C692   1.353       .  A
N679        N707   1.327       .  A
H680        C703   1.080       .  S
H681        C698   1.070       .  S
N683       Co697   2.060   1_556  S
N684        N696   1.317       .  A
N684        N700   1.324       .  A
N684       Co693   2.076       .  S
C685        N689   1.364       .  A
C685        C699   1.449       .  S
C685       C1282   1.492       .  S
C686        C705   1.448       .  S
C686        H690   1.079       .  S
N687        C698   1.333       .  A
N687       Co697   2.084   1_556  S
C691        N707   1.355       .  A
C691        C703   1.456       .  S
C691       C1229   1.485       .  S
Co693      Cl704   2.397       .  S
N694        C705   1.357       .  A
C695       C1257   1.489       .  S
C705       C1240   1.488       .  S
C708        N726   1.344       .  A
C708        C745   1.464       .  S
C708       C1103   1.485       .  S
N709        N726   1.325       .  A
N709        N731   1.317       .  A
N709       Co746   2.064       .  S
C710        N735   1.339       .  A
C710        C748   1.452       .  S
C710        H755   1.080       .  S
H711        C752   1.081       .  S
C712        N736   1.352       .  A
C712        C716   1.480       .  S
C712        H741   1.081       .  S
Co713       N721   2.101       .  S
Co713       N729   2.125       .  S
N714        C752   1.343       .  A
N714        N721   1.315       .  A
N714       Co715   2.079       .  S
Co715       N718   2.063       .  S
Co715       N735   2.072       .  S
Co715       N722   2.074       .  S
C716        N754   1.337       .  A
C716       C1170   1.477       .  S
N717        N724   1.320       .  A
N717        N747   1.332       .  A
N717       Co750   2.118       .  S
N718        N736   1.324       .  A
N718        N754   1.315       .  A
N719        C748   1.362       .  A
N719        N729   1.332       .  A
H720        C745   1.079       .  S
N721        N742   1.328       .  A
N722        N740   1.323       .  A
N722        N727   1.315       .  A
C723        N727   1.338       .  A
C723        C751   1.475       .  S
C723       C1145   1.476       .  S
N724        C739   1.331       .  A
N724       Co746   2.064       .  S
C725        N753   1.340       .  A
C725        C728   1.472       .  S
C725        H759   1.074       .  S
C728        N749   1.349       .  A
C728       C1086   1.500       .  S
N729        N735   1.316       .  A
N730        C756   1.320       .  A
N730        N732   1.319       .  A
N730       Co746   2.046       .  S
N731        C745   1.343       .  A
N732        N760   1.336       .  A
N732       Co750   2.131       .  S
H733        C756   1.082       .  S
H734        C751   1.081       .  S
N737        N749   1.327       .  A
N737        N753   1.313       .  A
N737       Co746   2.077       .  S
C738        N742   1.353       .  A
C738        C752   1.459       .  S
C738       C1131   1.487       .  S
C739        C758   1.448       .  S
C739        H743   1.082       .  S
N740        C751   1.354       .  A
C744        N760   1.368       .  A
C744        C756   1.442       .  S
C744       C1159   1.488       .  S
Co746      Cl757   2.390       .  S
N747        C758   1.362       .  A
C748       C1117   1.491       .  S
Co750      Cl757   2.516       .  S
C758       C1184   1.481       .  S
C761        N779   1.331       .  A
C761        C798   1.475       .  S
C761       C1075   1.467       .  S
N762        N779   1.311       .  A
N762        N784   1.323       .  A
N762       Co799   2.053   1_545  S
C763        N788   1.325       .  A
C763        C801   1.442       .  S
C763        H808   1.082       .  S
H764        C805   1.082       .  S
C765        N789   1.339       .  A
C765        C769   1.471       .  S
C765        H794   1.076       .  S
Co766       N784   2.110   1_565  S
Co766       N774   2.130   1_565  S
Co766       N806   2.121       .  S
Co766       N782   2.103       .  S
Co766      Cl810   2.526       .  S
N767        C805   1.325       .  A
N767        N774   1.323       .  A
N767       Co768   2.047   1_545  S
Co768       N771   2.072   1_565  S
Co768       N788   2.048       .  S
Co768       N775   2.069       .  S
Co768      Cl810   2.379       .  S
C769        N807   1.347       .  A
C769       C1100   1.496       .  S
N770        N777   1.315       .  A
N770        N800   1.332       .  A
N770       Co803   2.127   1_545  S
N771        N789   1.315       .  A
N771        N807   1.328       .  A
N772        C801   1.357       .  A
N772        N782   1.329       .  A
H773        C798   1.081       .  S
N774        N795   1.336       .  A
N775        N793   1.315       .  A
N775        N780   1.326       .  A
C776        N780   1.347       .  A
C776        C804   1.466       .  S
C776       C1089   1.492       .  S
N777        C792   1.339       .  A
N777       Co799   2.060   1_545  S
C778        N806   1.358       .  A
C778        C781   1.484       .  S
C778        H812   1.081       .  S
C781        N802   1.334       .  A
C781       C1047   1.485       .  S
N782        N788   1.322       .  A
N783        C809   1.339       .  A
N783        N785   1.314       .  A
N783       Co799   2.061       .  S
N784        C798   1.354       .  A
N785        N813   1.330       .  A
N785       Co803   2.115       .  S
H786        C809   1.080       .  S
H787        C804   1.078       .  S
N789       Co803   2.095   1_545  S
N790        N802   1.308       .  A
N790        N806   1.321       .  A
N790       Co799   2.050       .  S
C791        N795   1.364       .  A
C791        C805   1.434       .  S
C791       C1061   1.478       .  S
C792        C811   1.450       .  S
C792        H796   1.080       .  S
N793        C804   1.343       .  A
N793       Co803   2.096       .  S
C797        N813   1.357       .  A
C797        C809   1.449       .  S
C797       C1226   1.481       .  S
Co799      Cl810   2.386       .  S
N800        C811   1.362       .  A
C801       C1030   1.475       .  S
Co803      Cl810   2.488       .  S
C811       C1243   1.493       .  S
C814        N832   1.354       .  A
C814        C851   1.473       .  S
C814       C1215   1.508       .  S
N815        N832   1.327       .  A
N815        N837   1.311       .  A
N815       Co852   2.079       .  S
C816        N841   1.339       .  A
C816        C854   1.449       .  S
C816        H861   1.080       .  S
H817        C858   1.079       .  S
C818        N842   1.353       .  A
C818        C822   1.470       .  S
C818        H847   1.081       .  S
Co819       N837   2.080   1_565  S
Co819       N827   2.113   1_565  S
Co819       N859   2.074       .  S
Co819       N835   2.109       .  S
Co819      Cl863   2.493       .  S
N820        C858   1.343       .  A
N820        N827   1.315       .  A
N820       Co821   2.072   1_545  S
Co821       N824   2.053   1_565  S
Co821       N841   2.063       .  S
Co821       N828   2.056       .  S
Co821      Cl863   2.379       .  S
C822        N860   1.330       .  A
C822       C1005   1.461       .  S
N823        N830   1.320       .  A
N823        N853   1.335       .  A
N823       Co856   2.121       .  S
N824        N842   1.324       .  A
N824        N860   1.311       .  A
N825        C854   1.357       .  A
N825        N835   1.331       .  A
H826        C851   1.068       .  S
N827        N848   1.330       .  A
N828        N846   1.323       .  A
N828        N833   1.312       .  A
C829        N833   1.335       .  A
C829        C857   1.476       .  S
C829        C974   1.484       .  S
N830        C845   1.321       .  A
N830       Co852   2.042       .  S
C831        N859   1.335       .  A
C831        C834   1.464       .  S
C831        H865   1.077       .  S
C834        N855   1.351       .  A
C834       C1201   1.491       .  S
N835        N841   1.314       .  A
N836        C862   1.326       .  A
N836        N838   1.322       .  A
N836       Co852   2.056   1_565  S
N837        C851   1.335       .  A
N838        N866   1.330       .  A
N838       Co856   2.106   1_565  S
H839        C862   1.081       .  S
H840        C857   1.081       .  S
N842       Co856   2.100       .  S
N843        N855   1.327       .  A
N843        N859   1.314       .  A
N843       Co852   2.078   1_565  S
C844        N848   1.355       .  A
C844        C858   1.454       .  S
C844       C1128   1.493       .  S
C845        C864   1.439       .  S
C845        H849   1.082       .  S
N846        C857   1.351       .  A
N846       Co856   2.111   1_565  S
C850        N866   1.357       .  A
C850        C862   1.443       .  S
C850        C988   1.474       .  S
Co852      Cl863   2.373   1_545  S
N853        C864   1.364       .  A
C854       C1114   1.485       .  S
Co856      Cl863   2.519   1_545  S
C864       C1019   1.483       .  S
C867        N885   1.330       .  A
C867        C904   1.481       .  S
C867       C1072   1.473       .  S
N868        N885   1.308       .  A
N868        N890   1.322       .  A
N868       Co905   2.045       .  S
C869        N894   1.318       .  A
C869        C907   1.441       .  S
C869        H914   1.082       .  S
H870        C911   1.082       .  S
C871        N895   1.345       .  A
C871        C875   1.462       .  S
C871        H900   1.079       .  S
Co872      N2198   2.123       .  S
Co872       N880   2.127       .  S
Co872      N2220   2.119       .  S
Co872       N888   2.123       .  S
Co872      Cl916   2.529       .  S
N873        C911   1.326       .  A
N873        N880   1.324       .  A
N873       Co874   2.060       .  S
Co874       N877   2.085       .  S
Co874       N894   2.047       .  S
Co874       N881   2.086       .  S
Co874      Cl916   2.365       .  S
C875        N913   1.352       .  A
C875       C1187   1.488       .  S
N876        N883   1.314       .  A
N876        N906   1.329       .  A
N876      Co2217   2.102   1_455  S
N877        N895   1.315       .  A
N877        N913   1.326       .  A
N878        C907   1.365       .  A
N878        N888   1.336       .  A
H879        C904   1.081       .  S
N880        N901   1.336       .  A
N881        N899   1.314       .  A
N881        N886   1.325       .  A
C882        N886   1.349       .  A
C882        C910   1.466       .  S
C882       C1173   1.497       .  S
N883        C898   1.338       .  A
N883       Co905   2.056       .  S
C884        N912   1.357       .  A
C884        C887   1.477       .  S
C884        H918   1.081       .  S
C887        N908   1.330       .  A
C887       C1016   1.469       .  S
N888        N894   1.321       .  A
N889        C915   1.333       .  A
N889        N891   1.313       .  A
N889       Co905   2.064       .  S
N890        C904   1.357       .  A
N890      Co2180   2.123   1_455  S
N891        N919   1.331       .  A
N891      Co2217   2.098   1_455  S
H892        C915   1.075       .  S
H893        C910   1.080       .  S
N895       Co909   2.088       .  S
N896        N908   1.310       .  A
N896        N912   1.323       .  A
N896       Co905   2.054       .  S
C897        N901   1.363       .  A
C897        C911   1.443       .  S
C897       C1058   1.492       .  S
C898        C917   1.447       .  S
C898        H902   1.079       .  S
N899        C910   1.348       .  A
N899       Co909   2.085       .  S
C903        N919   1.357       .  A
C903        C915   1.455       .  S
C903       C1285   1.494       .  S
Co905     Cl2224   2.371   1_455  S
N906        C917   1.354       .  A
C907       C1002   1.488       .  S
Co909      N2184   2.102       .  S
Co909      N2199   2.098       .  S
Co909      Cl916   2.515       .  S
N912      Co2180   2.119   1_455  S
Cl916     Co2213   2.371       .  S
C917       C1299   1.480       .  S
C920        N938   1.354       .  A
C920        C957   1.471       .  S
C920       C1271   1.504       .  S
N921        N938   1.324       .  A
N921        N943   1.314       .  A
N921       Co958   2.091       .  S
C922        N947   1.334       .  A
C922        C960   1.453       .  S
C922        H967   1.076       .  S
H923        C964   1.076       .  S
C924        N948   1.355       .  A
C924        C928   1.481       .  S
C924        H953   1.081       .  S
Co925      N2251   2.087       .  S
Co925       N933   2.119       .  S
Co925      N2273   2.090       .  S
Co925       N941   2.116       .  S
Co925      Cl969   2.503       .  S
N926        C964   1.333       .  A
N926        N933   1.312       .  A
N926       Co927   2.048       .  S
Co927       N930   2.064       .  S
Co927       N947   2.051       .  S
Co927       N934   2.066       .  S
Co927      Cl969   2.369       .  S
C928        N966   1.333       .  A
C928       C1033   1.485       .  S
N929        N936   1.324       .  A
N929        N959   1.332       .  A
N929      Co2270   2.111   1_455  S
N930        N948   1.319       .  A
N930        N966   1.308       .  A
N931        C960   1.360       .  A
N931        N941   1.332       .  A
H932        C957   1.076   1_655  S
N933        N954   1.334       .  A
N934        N952   1.320       .  A
N934        N939   1.311       .  A
C935        N939   1.336       .  A
C935        C963   1.479       .  S
C935        C977   1.485       .  S
N936        C951   1.327       .  A
N936       Co958   2.059       .  S
C937        N965   1.347       .  A
C937        C940   1.461       .  S
C937        H971   1.080   1_455  S
C940        N961   1.349       .  A
C940       C1254   1.484       .  S
N941        N947   1.312       .  A
N942        C968   1.328       .  A
N942        N944   1.323       .  A
N942       Co958   2.063       .  S
N943        C957   1.347       .  A
N943      Co2233   2.087   1_455  S
N944        N972   1.329       .  A
N944      Co2270   2.105   1_455  S
H945        C968   1.080       .  S
H946        C963   1.081       .  S
N948       Co962   2.098       .  S
N949        N961   1.325       .  A
N949        N965   1.315       .  A
N949       Co958   2.080       .  S
C950        N954   1.361       .  A
C950        C964   1.447       .  S
C950       C1156   1.495       .  S
C951        C970   1.439       .  S
C951        H955   1.082       .  S
N952        C963   1.355       .  A
N952       Co962   2.104       .  S
C956        N972   1.357       .  A
C956        C968   1.448       .  S
C956        C991   1.481       .  S
Co958     Cl2277   2.370   1_455  S
N959        C970   1.358       .  A
C960       C1142   1.503       .  S
Co962      N2237   2.111       .  S
Co962      N2252   2.105       .  S
Co962      Cl969   2.521       .  S
N965      Co2233   2.090   1_455  S
Cl969     Co2266   2.370       .  S
C970       C1044   1.469       .  S
C973        H980   1.084       .  S
C973        C974   1.418       .  A
C973        C978   1.403       .  A
C974        C975   1.405       .  A
C975        C976   1.398       .  A
C975        N982   1.438       .  S
C976        H981   1.080       .  S
C976        C977   1.414       .  A
C977        C978   1.407       .  A
C978        N979   1.437       .  S
N979        H983   1.046       .  S
N979        H984   1.043       .  S
N982        H985   1.041       .  S
N982        H986   1.046       .  S
C987        H994   1.084       .  S
C987        C988   1.393       .  A
C987        C992   1.404       .  A
C988        C989   1.416       .  A
C989        C990   1.400       .  A
C989        N996   1.433       .  S
C990        H995   1.084       .  S
C990        C991   1.396       .  A
C991        C992   1.424       .  A
C992        N993   1.437       .  S
N993        H997   1.046       .  S
N993        H998   1.045       .  S
N996        H999   1.045       .  S
N996       H1000   1.046       .  S
C1001      H1008   1.078       .  S
C1001      C1002   1.407       .  A
C1001      C1006   1.392       .  A
C1002      C1003   1.412       .  A
C1003      C1004   1.417       .  A
C1003      N1010   1.436       .  S
C1004      H1009   1.084       .  S
C1004      C1005   1.411       .  A
C1005      C1006   1.400       .  A
C1006      N1007   1.440       .  S
N1007      H1011   1.046       .  S
N1007      H1012   1.045       .  S
N1010      H1013   1.044       .  S
N1010      H1014   1.046       .  S
C1015      H1022   1.084       .  S
C1015      C1016   1.408       .  A
C1015      C1020   1.417       .  A
C1016      C1017   1.408       .  A
C1017      C1018   1.397       .  A
C1017      N1024   1.441       .  S
C1018      H1023   1.085       .  S
C1018      C1019   1.405       .  A
C1019      C1020   1.414       .  A
C1020      N1021   1.437       .  S
N1021      H1025   1.046       .  S
N1021      H1026   1.046       .  S
N1024      H1027   1.044       .  S
N1024      H1028   1.046       .  S
C1029      H1036   1.084       .  S
C1029      C1030   1.414       .  A
C1029      C1034   1.403       .  A
C1030      C1031   1.393       .  A
C1031      C1032   1.398       .  A
C1031      N1038   1.437       .  S
C1032      H1037   1.079       .  S
C1032      C1033   1.418       .  A
C1033      C1034   1.410       .  A
C1034      N1035   1.437       .  S
N1035      H1039   1.046       .  S
N1035      H1040   1.041       .  S
N1038      H1041   1.045       .  S
N1038      H1042   1.045       .  S
C1043      H1050   1.083       .  S
C1043      C1044   1.409       .  A
C1043      C1048   1.416       .  A
C1044      C1045   1.402       .  A
C1045      C1046   1.396       .  A
C1045      N1052   1.439       .  S
C1046      H1051   1.084       .  S
C1046      C1047   1.409       .  A
C1047      C1048   1.413       .  A
C1048      N1049   1.436       .  S
N1049      H1053   1.046       .  S
N1049      H1054   1.044       .  S
N1052      H1055   1.044       .  S
N1052      H1056   1.046       .  S
C1057      H1064   1.085       .  S
C1057      C1058   1.404       .  A
C1057      C1062   1.395       .  A
C1058      C1059   1.425       .  A
C1059      C1060   1.416       .  A
C1059      N1066   1.437       .  S
C1060      H1065   1.084       .  S
C1060      C1061   1.408       .  A
C1061      C1062   1.414       .  A
C1062      N1063   1.441       .  S
N1063      H1067   1.046       .  S
N1063      H1068   1.044       .  S
N1066      H1069   1.039       .  S
N1066      H1070   1.046       .  S
C1071      H1078   1.083       .  S
C1071      C1072   1.405       .  A
C1071      C1076   1.415       .  A
C1072      C1073   1.413       .  A
C1073      C1074   1.397       .  A
C1073      N1080   1.440       .  S
C1074      H1079   1.085       .  S
C1074      C1075   1.398       .  A
C1075      C1076   1.414       .  A
C1076      N1077   1.436       .  S
N1077      H1081   1.046       .  S
N1077      H1082   1.045       .  S
N1080      H1083   1.045       .  S
N1080      H1084   1.046       .  S
C1085      H1092   1.083       .  S
C1085      C1086   1.406       .  A
C1085      C1090   1.417       .  A
C1086      C1087   1.409       .  A
C1087      C1088   1.401       .  A
C1087      N1094   1.423       .  S
C1088      H1093   1.084       .  S
C1088      C1089   1.394       .  A
C1089      C1090   1.420       .  A
C1090      N1091   1.437       .  S
N1091      H1095   1.046       .  S
N1091      H1096   1.045       .  S
N1094      H1097   1.043       .  S
C1099      H1106   1.083       .  S
C1099      C1100   1.405       .  A
C1099      C1104   1.412       .  A
C1100      C1101   1.407       .  A
C1101      C1102   1.399       .  A
C1101      N1108   1.421       .  S
C1102      H1107   1.085       .  S
C1102      C1103   1.390       .  A
C1103      C1104   1.422       .  A
C1104      N1105   1.431       .  S
N1105      H1109   1.045       .  S
N1105      H1110   1.045       .  S
N1108      H1111   1.044       .  S
N1108      H1112   1.040       .  S
C1113      H1120   1.084       .  S
C1113      C1114   1.408       .  A
C1113      C1118   1.416       .  A
C1114      C1115   1.410       .  A
C1115      C1116   1.409       .  A
C1115      N1122   1.438       .  S
C1116      H1121   1.084       .  S
C1116      C1117   1.407       .  A
C1117      C1118   1.409       .  A
C1118      N1119   1.434       .  S
N1119      H1123   1.045       .  S
N1119      H1124   1.043       .  S
N1122      H1125   1.045       .  S
N1122      H1126   1.046       .  S
C1127      H1134   1.083       .  S
C1127      C1128   1.406       .  A
C1127      C1132   1.408       .  A
C1128      C1129   1.408       .  A
C1129      C1130   1.403       .  A
C1129      N1136   1.426       .  S
C1130      H1135   1.084       .  S
C1130      C1131   1.405       .  A
C1131      C1132   1.419       .  A
C1132      N1133   1.438       .  S
N1133      H1137   1.045       .  S
N1133      H1138   1.043       .  S
N1136      H1139   1.045       .  S
C1141      H1148   1.079       .  S
C1141      C1142   1.410       .  A
C1141      C1146   1.398       .  A
C1142      C1143   1.417       .  A
C1143      C1144   1.416       .  A
C1143      N1150   1.435       .  S
C1144      H1149   1.080       .  S
C1144      C1145   1.404       .  A
C1145      C1146   1.410       .  A
C1146      N1147   1.440       .  S
N1147      H1151   1.046       .  S
N1147      H1152   1.045       .  S
N1150      H1153   1.045       .  S
N1150      H1154   1.046       .  S
C1155      H1162   1.074       .  S
C1155      C1156   1.407       .  A
C1155      C1160   1.417       .  A
C1156      C1157   1.415       .  A
C1157      C1158   1.401       .  A
C1157      N1164   1.438       .  S
C1158      H1163   1.085       .  S
C1158      C1159   1.406       .  A
C1159      C1160   1.407       .  A
C1160      N1161   1.434       .  S
N1161      H1165   1.042       .  S
N1161      H1166   1.046       .  S
N1164      H1167   1.046       .  S
N1164      H1168   1.046       .  S
C1169      H1176   1.085       .  S
C1169      C1170   1.400       .  A
C1169      C1174   1.404       .  A
C1170      C1171   1.414       .  A
C1171      C1172   1.406       .  A
C1171      N1178   1.430       .  S
C1172      H1177   1.080       .  S
C1172      C1173   1.406       .  A
C1173      C1174   1.415       .  A
C1174      N1175   1.429       .  S
N1175      H1179   1.046       .  S
N1175      H1180   1.046       .  S
N1178      H1181   1.044       .  S
N1178      H1182   1.045       .  S
C1183      H1190   1.085       .  S
C1183      C1184   1.406       .  A
C1183      C1188   1.410       .  A
C1184      C1185   1.409       .  A
C1185      C1186   1.411       .  A
C1185      N1192   1.438       .  S
C1186      H1191   1.084       .  S
C1186      C1187   1.408       .  A
C1187      C1188   1.410       .  A
C1188      N1189   1.437       .  S
N1189      H1193   1.044       .  S
N1189      H1194   1.043       .  S
N1192      H1195   1.045       .  S
N1192      H1196   1.046       .  S
C1197      H1204   1.083       .  S
C1197      C1198   1.409       .  A
C1197      C1202   1.413       .  A
C1198      C1199   1.420       .  A
C1199      C1200   1.397       .  A
C1199      N1206   1.428       .  S
C1200      H1205   1.081       .  S
C1200      C1201   1.395       .  A
C1201      C1202   1.414       .  A
C1202      N1203   1.432       .  S
N1203      H1207   1.045       .  S
N1203      H1208   1.046       .  S
N1206      H1209   1.033   1_556  S
C1211      H1218   1.080       .  S
C1211      C1212   1.402       .  A
C1211      C1216   1.393       .  A
C1212      C1213   1.419       .  A
C1213      C1214   1.410       .  A
C1213      N1220   1.431       .  S
C1214      H1219   1.084       .  S
C1214      C1215   1.412       .  A
C1215      C1216   1.418       .  A
C1216      N1217   1.421       .  S
N1217      H1222   1.043   1_556  S
N1220      H1223   1.046       .  S
N1220      H1224   1.043       .  S
C1225      H1232   1.084       .  S
C1225      C1226   1.398       .  A
C1225      C1230   1.404       .  A
C1226      C1227   1.413       .  A
C1227      C1228   1.410       .  A
C1227      N1234   1.437       .  S
C1228      H1233   1.084       .  S
C1228      C1229   1.402       .  A
C1229      C1230   1.425       .  A
C1230      N1231   1.439       .  S
N1231      H1235   1.045       .  S
N1231      H1236   1.041       .  S
N1234      H1237   1.042       .  S
N1234      H1238   1.045       .  S
C1239      H1246   1.084       .  S
C1239      C1240   1.400       .  A
C1239      C1244   1.406       .  A
C1240      C1241   1.420       .  A
C1241      C1242   1.409       .  A
C1241      N1248   1.438       .  S
C1242      H1247   1.084       .  S
C1242      C1243   1.404       .  A
C1243      C1244   1.430       .  A
C1244      N1245   1.442       .  S
N1245      H1249   1.046       .  S
N1245      H1250   1.039       .  S
N1248      H1251   1.042       .  S
N1248      H1252   1.046       .  S
C1253      H1260   1.084       .  S
C1253      C1254   1.397       .  A
C1253      C1258   1.407       .  A
C1254      C1255   1.416       .  A
C1255      C1256   1.414       .  A
C1255      N1262   1.438       .  S
C1256      H1261   1.083       .  S
C1256      C1257   1.401       .  A
C1257      C1258   1.417       .  A
C1258      N1259   1.435       .  S
N1259      H1263   1.045       .  S
N1259      H1264   1.044       .  S
N1262      H1265   1.045       .  S
N1262      H2574   1.046       .  S
H1266      N2570   1.046       .  S
C1267      H1274   1.084       .  S
C1267      C1268   1.402       .  A
C1267      C1272   1.414       .  A
C1268      C1269   1.413       .  A
C1269      C1270   1.401       .  A
C1269      N1276   1.439       .  S
C1270      H1275   1.082       .  S
C1270      C1271   1.409       .  A
C1271      C1272   1.421       .  A
C1272      N1273   1.437       .  S
N1273      H2585   1.045       .  S
N1273      H1278   1.036   1_455  S
N1276      H1279   1.044       .  S
N1276      H1280   1.046       .  S
H1277      N2581   1.045       .  S
C1281      H1288   1.083       .  S
C1281      C1282   1.402       .  A
C1281      C1286   1.398       .  A
C1282      C1283   1.418       .  A
C1283      C1284   1.414       .  A
C1283      N1290   1.434       .  S
C1284      H1289   1.083       .  S
C1284      C1285   1.409       .  A
C1285      C1286   1.415       .  A
C1286      N1287   1.438       .  S
N1287      H1291   1.046       .  S
N1287      H1292   1.046       .  S
N1290      H1293   1.040       .  S
N1290      H2602   1.044       .  S
H1294      N2598   1.044       .  S
C1295      H1302   1.084       .  S
C1295      C1296   1.409       .  A
C1295      C1300   1.402       .  A
C1296      C1297   1.412       .  A
C1297      C1298   1.406       .  A
C1297      N1304   1.438       .  S
C1298      H1303   1.084       .  S
C1298      C1299   1.410       .  A
C1299      C1300   1.409       .  A
C1300      N1301   1.439       .  S
N1301      H1305   1.045       .  S
N1301      H1306   1.042       .  S
N1304      H1307   1.044       .  S
N1304      H1308   1.045       .  S
C1309      N1327   1.338       .  A
C1309      C1346   1.478       .  S
C1309      C1950   1.478       .  S
N1310      N1327   1.314       .  A
N1310      N1332   1.320       .  A
N1310     Co1347   2.064       .  S
C1311      N1336   1.333       .  A
C1311      C1349   1.453       .  S
C1311      H1356   1.082       .  S
H1312      C1353   1.082       .  S
C1313      N1337   1.335       .  A
C1313      C1317   1.465       .  S
C1313      H1342   1.079       .  S
Co1314     N1332   2.111       .  S
Co1314     N1976   2.121   1_554  S
Co1314     N1354   2.120       .  S
Co1314     N1984   2.122   1_554  S
Co1314    Cl1358   2.511       .  S
N1315      C1353   1.322       .  A
N1315      N1322   1.321       .  A
N1315     Co1316   2.058       .  S
Co1316     N1319   2.102       .  S
Co1316     N1336   2.069       .  S
Co1316     N1323   2.085       .  S
Co1316    Cl2012   2.388       .  S
C1317      N1355   1.357       .  A
C1317      C1866   1.501       .  S
N1318      N1325   1.317       .  A
N1318      N1348   1.331       .  A
N1318     Co2005   2.111       .  S
N1319      N1337   1.311       .  A
N1319      N1355   1.329       .  A
N1320      C1349   1.362       .  A
N1320      N1330   1.332       .  A
H1321      C1346   1.081       .  S
N1322      N1343   1.334       .  A
N1322     Co1968   2.121       .  S
N1323      N1341   1.314       .  A
N1323      N1328   1.328       .  A
C1324      N1328   1.355       .  A
C1324      C1352   1.469       .  S
C1324      C1852   1.505       .  S
N1325      C1340   1.341       .  A
N1325     Co1347   2.072       .  S
C1326      N1354   1.352       .  A
C1326      C1329   1.477       .  S
C1326      H1360   1.081       .  S
C1329      N1350   1.339       .  A
C1329      C1922   1.479       .  S
N1330      N1336   1.321       .  A
N1330     Co1968   2.122       .  S
N1331      C1357   1.342       .  A
N1331      N1333   1.314       .  A
N1331     Co1347   2.068       .  S
N1332      C1346   1.353       .  A
N1333      N1361   1.327       .  A
N1333     Co2005   2.104       .  S
H1334      C1357   1.080       .  S
H1335      C1352   1.070       .  S
N1337     Co1351   2.060       .  S
N1338      N1350   1.317       .  A
N1338      N1354   1.324       .  A
N1338     Co1347   2.076       .  S
C1339      N1343   1.364       .  A
C1339      C1353   1.449       .  S
C1339      C1936   1.492       .  S
C1340      C1359   1.448       .  S
C1340      H1344   1.079       .  S
N1341      C1352   1.333       .  A
N1341     Co1351   2.084       .  S
C1345      N1361   1.355       .  A
C1345      C1357   1.456       .  S
C1345      C1883   1.485       .  S
Co1347    Cl1358   2.397       .  S
N1348      C1359   1.357       .  A
C1349      C1911   1.489       .  S
Co1351     N1972   2.111       .  S
Co1351     N1987   2.104       .  S
Co1351    Cl2012   2.499       .  S
Cl1358    Co1970   2.388   1_554  S
Cl1358    Co2005   2.499       .  S
C1359      C1894   1.488       .  S
C1362      N1380   1.344       .  A
C1362      C1399   1.464       .  S
C1362      C1757   1.485       .  S
N1363      N1380   1.325       .  A
N1363      N1385   1.317       .  A
N1363     Co1400   2.064       .  S
C1364      N1389   1.339       .  A
C1364      C1402   1.452       .  S
C1364      H1409   1.080       .  S
H1365      C1406   1.081       .  S
C1366      N1390   1.352       .  A
C1366      C1370   1.480       .  S
C1366      H1395   1.081       .  S
Co1367     N2039   2.102       .  S
Co1367     N1375   2.101       .  S
Co1367     N2061   2.091       .  S
Co1367     N1383   2.125       .  S
Co1367    Cl2065   2.499       .  S
N1368      C1406   1.343       .  A
N1368      N1375   1.315       .  A
N1368     Co1369   2.079       .  S
Co1369     N1372   2.063       .  S
Co1369     N1389   2.072       .  S
Co1369     N1376   2.074       .  S
Co1369    Cl2065   2.394       .  S
C1370      N1408   1.337       .  A
C1370      C1824   1.477       .  S
N1371      N1378   1.320       .  A
N1371      N1401   1.332       .  A
N1371     Co1404   2.118       .  S
N1372      N1390   1.324       .  A
N1372      N1408   1.315       .  A
N1373      C1402   1.362       .  A
N1373      N1383   1.332       .  A
H1374      C1399   1.079       .  S
N1375      N1396   1.328       .  A
N1376      N1394   1.323       .  A
N1376      N1381   1.315       .  A
C1377      N1381   1.338       .  A
C1377      C1405   1.475       .  S
C1377      C1799   1.476       .  S
N1378      C1393   1.331       .  A
N1378     Co1400   2.064       .  S
C1379      N1407   1.340       .  A
C1379      C1382   1.472       .  S
C1379      H1413   1.074       .  S
C1382      N1403   1.349       .  A
C1382      C1740   1.500       .  S
N1383      N1389   1.316       .  A
N1384      C1410   1.320       .  A
N1384      N1386   1.319       .  A
N1384     Co1400   2.046       .  S
N1385      C1399   1.343       .  A
N1385     Co2021   2.102   1_554  S
N1386      N1414   1.336       .  A
N1386     Co1404   2.131       .  S
H1387      C1410   1.082       .  S
H1388      C1405   1.081       .  S
N1390     Co2058   2.124       .  S
N1391      N1403   1.327       .  A
N1391      N1407   1.313       .  A
N1391     Co1400   2.077       .  S
C1392      N1396   1.353       .  A
C1392      C1406   1.459       .  S
C1392      C1785   1.487       .  S
C1393      C1412   1.448       .  S
C1393      H1397   1.082       .  S
N1394      C1405   1.354       .  A
N1394     Co2058   2.112       .  S
C1398      N1414   1.368       .  A
C1398      C1410   1.442       .  S
C1398      C1813   1.488       .  S
Co1400    Cl1411   2.390       .  S
N1401      C1412   1.362       .  A
C1402      C1771   1.491       .  S
Co1404     N2044   2.124   1_554  S
Co1404     N2048   2.112   1_554  S
Co1404    Cl1411   2.516       .  S
N1407     Co2021   2.091   1_554  S
Cl1411    Co2021   2.499   1_554  S
Cl1411    Co2023   2.394   1_554  S
C1412      C1838   1.481       .  S
C1415      N1433   1.331       .  A
C1415      C1452   1.475       .  S
C1415      C1729   1.467       .  S
N1416      N1433   1.311       .  A
N1416      N1438   1.323       .  A
N1416     Co1453   2.053   1_545  S
C1417      N1442   1.325       .  A
C1417      C1455   1.442       .  S
C1417      H1462   1.082       .  S
H1418      C1459   1.082       .  S
C1419      N1443   1.339       .  A
C1419      C1423   1.471       .  S
C1419      H1448   1.076       .  S
Co1420     N1438   2.110   1_565  S
Co1420     N1428   2.130   1_565  S
Co1420     N1460   2.121       .  S
Co1420     N1436   2.103       .  S
Co1420    Cl1464   2.526       .  S
N1421      C1459   1.325       .  A
N1421      N1428   1.323       .  A
N1421     Co1422   2.047   1_545  S
Co1422     N1425   2.072   1_565  S
Co1422     N1442   2.048       .  S
Co1422     N1429   2.069       .  S
Co1422    Cl1464   2.379       .  S
C1423      N1461   1.347       .  A
C1423      C1754   1.496       .  S
N1424      N1431   1.315       .  A
N1424      N1454   1.332       .  A
N1424     Co1457   2.127   1_545  S
N1425      N1443   1.315       .  A
N1425      N1461   1.328       .  A
N1426      C1455   1.357       .  A
N1426      N1436   1.329       .  A
H1427      C1452   1.081       .  S
N1428      N1449   1.336       .  A
N1429      N1447   1.315       .  A
N1429      N1434   1.326       .  A
C1430      N1434   1.347       .  A
C1430      C1458   1.466       .  S
C1430      C1743   1.492       .  S
N1431      C1446   1.339       .  A
N1431     Co1453   2.060   1_545  S
C1432      N1460   1.358       .  A
C1432      C1435   1.484       .  S
C1432      H1466   1.081       .  S
C1435      N1456   1.334       .  A
C1435      C1701   1.485       .  S
N1436      N1442   1.322       .  A
N1437      C1463   1.339       .  A
N1437      N1439   1.314       .  A
N1437     Co1453   2.061       .  S
N1438      C1452   1.354       .  A
N1439      N1467   1.330       .  A
N1439     Co1457   2.115       .  S
H1440      C1463   1.080       .  S
H1441      C1458   1.078       .  S
N1443     Co1457   2.095   1_545  S
N1444      N1456   1.308       .  A
N1444      N1460   1.321       .  A
N1444     Co1453   2.050       .  S
C1445      N1449   1.364       .  A
C1445      C1459   1.434       .  S
C1445      C1715   1.478       .  S
C1446      C1465   1.450       .  S
C1446      H1450   1.080       .  S
N1447      C1458   1.343       .  A
N1447     Co1457   2.096       .  S
C1451      N1467   1.357       .  A
C1451      C1463   1.449       .  S
C1451      C1880   1.481       .  S
Co1453    Cl1464   2.386       .  S
N1454      C1465   1.362       .  A
C1455      C1684   1.475       .  S
Co1457    Cl1464   2.488       .  S
C1465      C1897   1.493       .  S
C1468      N1486   1.354       .  A
C1468      C1505   1.473       .  S
C1468      C1869   1.508       .  S
N1469      N1486   1.327       .  A
N1469      N1491   1.311       .  A
N1469     Co1506   2.079       .  S
C1470      N1495   1.339       .  A
C1470      C1508   1.449       .  S
C1470      H1515   1.080       .  S
H1471      C1512   1.079       .  S
C1472      N1496   1.353       .  A
C1472      C1476   1.470       .  S
C1472      H1501   1.081       .  S
Co1473     N1491   2.080   1_565  S
Co1473     N1481   2.113   1_565  S
Co1473     N1513   2.074       .  S
Co1473     N1489   2.109       .  S
Co1473    Cl1517   2.493       .  S
N1474      C1512   1.343       .  A
N1474      N1481   1.315       .  A
N1474     Co1475   2.072   1_545  S
Co1475     N1478   2.053   1_565  S
Co1475     N1495   2.063       .  S
Co1475     N1482   2.056       .  S
Co1475    Cl1517   2.379       .  S
C1476      N1514   1.330       .  A
C1476      C1659   1.461       .  S
N1477      N1484   1.320       .  A
N1477      N1507   1.335       .  A
N1477     Co1510   2.121       .  S
N1478      N1496   1.324       .  A
N1478      N1514   1.311       .  A
N1479      C1508   1.357       .  A
N1479      N1489   1.331       .  A
H1480      C1505   1.068       .  S
N1481      N1502   1.330       .  A
N1482      N1500   1.323       .  A
N1482      N1487   1.312       .  A
C1483      N1487   1.335       .  A
C1483      C1511   1.476       .  S
C1483      C1628   1.484       .  S
N1484      C1499   1.321       .  A
N1484     Co1506   2.042       .  S
C1485      N1513   1.335       .  A
C1485      C1488   1.464       .  S
C1485      H1519   1.077       .  S
C1488      N1509   1.351       .  A
C1488      C1855   1.491       .  S
N1489      N1495   1.314       .  A
N1490      C1516   1.326       .  A
N1490      N1492   1.322       .  A
N1490     Co1506   2.056   1_565  S
N1491      C1505   1.335       .  A
N1492      N1520   1.330       .  A
N1492     Co1510   2.106   1_565  S
H1493      C1516   1.081       .  S
H1494      C1511   1.081       .  S
N1496     Co1510   2.100       .  S
N1497      N1509   1.327       .  A
N1497      N1513   1.314       .  A
N1497     Co1506   2.078   1_565  S
C1498      N1502   1.355       .  A
C1498      C1512   1.454       .  S
C1498      C1782   1.493       .  S
C1499      C1518   1.439       .  S
C1499      H1503   1.082       .  S
N1500      C1511   1.351       .  A
N1500     Co1510   2.111   1_565  S
C1504      N1520   1.357       .  A
C1504      C1516   1.443       .  S
C1504      C1642   1.474       .  S
Co1506    Cl1517   2.373   1_545  S
N1507      C1518   1.364       .  A
C1508      C1768   1.485       .  S
Co1510    Cl1517   2.519   1_545  S
C1518      C1673   1.483       .  S
C1521      N1539   1.330       .  A
C1521      C1558   1.481       .  S
C1521      C1726   1.473       .  S
N1522      N1539   1.308       .  A
N1522      N1544   1.322       .  A
N1522     Co1559   2.045       .  S
C1523      N1548   1.318       .  A
C1523      C1561   1.441       .  S
C1523      H1568   1.082       .  S
H1524      C1565   1.082       .  S
C1525      N1549   1.345       .  A
C1525      C1529   1.462       .  S
C1525      H1554   1.079       .  S
Co1526     N1534   2.127       .  S
Co1526     N1542   2.123       .  S
Co1526    Cl1570   2.529       .  S
N1527      C1565   1.326       .  A
N1527      N1534   1.324       .  A
N1527     Co1528   2.060       .  S
Co1528     N1531   2.085       .  S
Co1528     N1548   2.047       .  S
Co1528     N1535   2.086       .  S
Co1528    Cl1570   2.365       .  S
C1529      N1567   1.352       .  A
C1529      C1841   1.488       .  S
N1530      N1537   1.314       .  A
N1530      N1560   1.329       .  A
N1531      N1549   1.315       .  A
N1531      N1567   1.326       .  A
N1532      C1561   1.365       .  A
N1532      N1542   1.336       .  A
H1533      C1558   1.081       .  S
N1534      N1555   1.336       .  A
N1535      N1553   1.314       .  A
N1535      N1540   1.325       .  A
C1536      N1540   1.349       .  A
C1536      C1564   1.466       .  S
C1536      C1827   1.497       .  S
N1537      C1552   1.338       .  A
N1537     Co1559   2.056       .  S
C1538      N1566   1.357       .  A
C1538      C1541   1.477       .  S
C1538      H1572   1.081       .  S
C1541      N1562   1.330       .  A
C1541      C1670   1.469       .  S
N1542      N1548   1.321       .  A
N1543      C1569   1.333       .  A
N1543      N1545   1.313       .  A
N1543     Co1559   2.064       .  S
N1544      C1558   1.357       .  A
N1545      N1573   1.331       .  A
H1546      C1569   1.075       .  S
H1547      C1564   1.080       .  S
N1549     Co1563   2.088       .  S
N1550      N1562   1.310       .  A
N1550      N1566   1.323       .  A
N1550     Co1559   2.054       .  S
C1551      N1555   1.363       .  A
C1551      C1565   1.443       .  S
C1551      C1712   1.492       .  S
C1552      C1571   1.447       .  S
C1552      H1556   1.079       .  S
N1553      C1564   1.348       .  A
N1553     Co1563   2.085       .  S
C1557      N1573   1.357       .  A
C1557      C1569   1.455       .  S
C1557      C1939   1.494       .  S
N1560      C1571   1.354       .  A
C1561      C1656   1.488       .  S
Co1563    Cl1570   2.515       .  S
C1571      C1953   1.480       .  S
C1574      N1592   1.354       .  A
C1574      C1611   1.471       .  S
C1574      C1925   1.504       .  S
N1575      N1592   1.324       .  A
N1575      N1597   1.314       .  A
N1575     Co1612   2.091       .  S
C1576      N1601   1.334       .  A
C1576      C1614   1.453       .  S
C1576      H1621   1.076       .  S
H1577      C1618   1.076       .  S
C1578      N1602   1.355       .  A
C1578      C1582   1.481       .  S
C1578      H1607   1.081       .  S
Co1579     N1587   2.119       .  S
Co1579     N1595   2.116       .  S
Co1579    Cl1623   2.503       .  S
N1580      C1618   1.333       .  A
N1580      N1587   1.312       .  A
N1580     Co1581   2.048       .  S
Co1581     N1584   2.064       .  S
Co1581     N1601   2.051       .  S
Co1581     N1588   2.066       .  S
Co1581    Cl1623   2.369       .  S
C1582      N1620   1.333       .  A
C1582      C1687   1.485       .  S
N1583      N1590   1.324       .  A
N1583      N1613   1.332       .  A
N1584      N1602   1.319       .  A
N1584      N1620   1.308       .  A
N1585      C1614   1.360       .  A
N1585      N1595   1.332       .  A
H1586      C1611   1.076       .  S
N1587      N1608   1.334       .  A
N1588      N1606   1.320       .  A
N1588      N1593   1.311       .  A
C1589      N1593   1.336       .  A
C1589      C1617   1.479       .  S
C1589      C1631   1.485       .  S
N1590      C1605   1.327       .  A
N1590     Co1612   2.059       .  S
C1591      N1619   1.347       .  A
C1591      C1594   1.461       .  S
C1591      H1625   1.080       .  S
C1594      N1615   1.349       .  A
C1594      C1908   1.484       .  S
N1595      N1601   1.312       .  A
N1596      C1622   1.328       .  A
N1596      N1598   1.323       .  A
N1596     Co1612   2.063       .  S
N1597      C1611   1.347       .  A
N1598      N1626   1.329       .  A
H1599      C1622   1.080       .  S
H1600      C1617   1.081       .  S
N1602     Co1616   2.098       .  S
N1603      N1615   1.325       .  A
N1603      N1619   1.315       .  A
N1603     Co1612   2.080       .  S
C1604      N1608   1.361       .  A
C1604      C1618   1.447       .  S
C1604      C1810   1.495       .  S
C1605      C1624   1.439       .  S
C1605      H1609   1.082       .  S
N1606      C1617   1.355       .  A
N1606     Co1616   2.104       .  S
C1610      N1626   1.357       .  A
C1610      C1622   1.448       .  S
C1610      C1645   1.481       .  S
N1613      C1624   1.358       .  A
C1614      C1796   1.503       .  S
Co1616    Cl1623   2.521       .  S
C1624      C1698   1.469       .  S
C1627      H1634   1.084       .  S
C1627      C1628   1.418       .  A
C1627      C1632   1.403       .  A
C1628      C1629   1.405       .  A
C1629      C1630   1.398       .  A
C1629      N1636   1.438       .  S
C1630      H1635   1.080       .  S
C1630      C1631   1.414       .  A
C1631      C1632   1.407       .  A
C1632      N1633   1.437       .  S
N1633      H1637   1.046       .  S
N1633      H1638   1.043       .  S
N1636      H1639   1.041       .  S
N1636      H1640   1.046       .  S
C1641      H1648   1.084       .  S
C1641      C1642   1.393       .  A
C1641      C1646   1.404       .  A
C1642      C1643   1.416       .  A
C1643      C1644   1.400       .  A
C1643      N1650   1.433       .  S
C1644      H1649   1.084       .  S
C1644      C1645   1.396       .  A
C1645      C1646   1.424       .  A
C1646      N1647   1.437       .  S
N1647      H1651   1.046       .  S
N1647      H1652   1.045       .  S
N1650      H1653   1.045       .  S
N1650      H1654   1.046       .  S
C1655      H1662   1.078       .  S
C1655      C1656   1.407       .  A
C1655      C1660   1.392       .  A
C1656      C1657   1.412       .  A
C1657      C1658   1.417       .  A
C1657      N1664   1.436       .  S
C1658      H1663   1.084       .  S
C1658      C1659   1.411       .  A
C1659      C1660   1.400       .  A
C1660      N1661   1.440       .  S
N1661      H1665   1.046       .  S
N1661      H1666   1.045       .  S
N1664      H1667   1.044       .  S
N1664      H1668   1.046       .  S
C1669      H1676   1.084       .  S
C1669      C1670   1.408       .  A
C1669      C1674   1.417       .  A
C1670      C1671   1.408       .  A
C1671      C1672   1.397       .  A
C1671      N1678   1.441       .  S
C1672      H1677   1.085       .  S
C1672      C1673   1.405       .  A
C1673      C1674   1.414       .  A
C1674      N1675   1.437       .  S
N1675      H1679   1.046       .  S
N1675      H1680   1.046       .  S
N1678      H1681   1.044       .  S
N1678      H1682   1.046       .  S
C1683      H1690   1.084       .  S
C1683      C1684   1.414       .  A
C1683      C1688   1.403       .  A
C1684      C1685   1.393       .  A
C1685      C1686   1.398       .  A
C1685      N1692   1.437       .  S
C1686      H1691   1.079       .  S
C1686      C1687   1.418       .  A
C1687      C1688   1.410       .  A
C1688      N1689   1.437       .  S
N1689      H1693   1.046       .  S
N1689      H1694   1.041       .  S
N1692      H1695   1.045       .  S
N1692      H1696   1.045       .  S
C1697      H1704   1.083       .  S
C1697      C1698   1.409       .  A
C1697      C1702   1.416       .  A
C1698      C1699   1.402       .  A
C1699      C1700   1.396       .  A
C1699      N1706   1.439       .  S
C1700      H1705   1.084       .  S
C1700      C1701   1.409       .  A
C1701      C1702   1.413       .  A
C1702      N1703   1.436       .  S
N1703      H1707   1.046       .  S
N1703      H1708   1.044       .  S
N1706      H1709   1.044       .  S
N1706      H1710   1.046       .  S
C1711      H1718   1.085       .  S
C1711      C1712   1.404       .  A
C1711      C1716   1.395       .  A
C1712      C1713   1.425       .  A
C1713      C1714   1.416       .  A
C1713      N1720   1.437       .  S
C1714      H1719   1.084       .  S
C1714      C1715   1.408       .  A
C1715      C1716   1.414       .  A
C1716      N1717   1.441       .  S
N1717      H1721   1.046       .  S
N1717      H1722   1.044       .  S
N1720      H1723   1.039       .  S
N1720      H1724   1.046       .  S
C1725      H1732   1.083       .  S
C1725      C1726   1.405       .  A
C1725      C1730   1.415       .  A
C1726      C1727   1.413       .  A
C1727      C1728   1.397       .  A
C1727      N1734   1.440       .  S
C1728      H1733   1.085       .  S
C1728      C1729   1.398       .  A
C1729      C1730   1.414       .  A
C1730      N1731   1.436       .  S
N1731      H1735   1.046       .  S
N1731      H1736   1.045       .  S
N1734      H1737   1.045       .  S
N1734      H1738   1.046       .  S
C1739      H1746   1.083       .  S
C1739      C1740   1.406       .  A
C1739      C1744   1.417       .  A
C1740      C1741   1.409       .  A
C1741      C1742   1.401       .  A
C1741      N1748   1.423       .  S
C1742      H1747   1.084       .  S
C1742      C1743   1.394       .  A
C1743      C1744   1.420       .  A
C1744      N1745   1.437       .  S
N1745      H1749   1.046       .  S
N1745      H1750   1.045       .  S
N1748      H1751   1.043   1_554  S
N1748      H2406   1.040   1_554  S
H1752      N2402   1.040       .  S
C1753      H1760   1.083       .  S
C1753      C1754   1.405       .  A
C1753      C1758   1.412       .  A
C1754      C1755   1.407       .  A
C1755      C1756   1.399       .  A
C1755      N1762   1.421       .  S
C1756      H1761   1.085       .  S
C1756      C1757   1.390       .  A
C1757      C1758   1.422       .  A
C1758      N1759   1.431       .  S
N1759      H1763   1.045       .  S
N1759      H1764   1.045       .  S
N1762      H1765   1.044       .  S
N1762      H1766   1.040       .  S
C1767      H1774   1.084       .  S
C1767      C1768   1.408       .  A
C1767      C1772   1.416       .  A
C1768      C1769   1.410       .  A
C1769      C1770   1.409       .  A
C1769      N1776   1.438       .  S
C1770      H1775   1.084       .  S
C1770      C1771   1.407       .  A
C1771      C1772   1.409       .  A
C1772      N1773   1.434       .  S
N1773      H1777   1.045       .  S
N1773      H1778   1.043       .  S
N1776      H1779   1.045       .  S
N1776      H1780   1.046       .  S
C1781      H1788   1.083       .  S
C1781      C1782   1.406       .  A
C1781      C1786   1.408       .  A
C1782      C1783   1.408       .  A
C1783      C1784   1.403       .  A
C1783      N1790   1.426       .  S
C1784      H1789   1.084       .  S
C1784      C1785   1.405       .  A
C1785      C1786   1.419       .  A
C1786      N1787   1.438       .  S
N1787      H1791   1.045       .  S
N1787      H1792   1.043       .  S
N1790      H1793   1.045       .  S
N1790      H2448   1.042       .  S
H1794      N2444   1.042   1_554  S
C1795      H1802   1.079       .  S
C1795      C1796   1.410       .  A
C1795      C1800   1.398       .  A
C1796      C1797   1.417       .  A
C1797      C1798   1.416       .  A
C1797      N1804   1.435       .  S
C1798      H1803   1.080       .  S
C1798      C1799   1.404       .  A
C1799      C1800   1.410       .  A
C1800      N1801   1.440       .  S
N1801      H1805   1.046       .  S
N1801      H1806   1.045       .  S
N1804      H1807   1.045       .  S
N1804      H1808   1.046       .  S
C1809      H1816   1.074       .  S
C1809      C1810   1.407       .  A
C1809      C1814   1.417       .  A
C1810      C1811   1.415       .  A
C1811      C1812   1.401       .  A
C1811      N1818   1.438       .  S
C1812      H1817   1.085       .  S
C1812      C1813   1.406       .  A
C1813      C1814   1.407       .  A
C1814      N1815   1.434       .  S
N1815      H1819   1.042       .  S
N1815      H1820   1.046       .  S
N1818      H1821   1.046       .  S
N1818      H1822   1.046       .  S
C1823      H1830   1.085       .  S
C1823      C1824   1.400       .  A
C1823      C1828   1.404       .  A
C1824      C1825   1.414       .  A
C1825      C1826   1.406       .  A
C1825      N1832   1.430       .  S
C1826      H1831   1.080       .  S
C1826      C1827   1.406       .  A
C1827      C1828   1.415       .  A
C1828      N1829   1.429       .  S
N1829      H1833   1.046       .  S
N1829      H1834   1.046       .  S
N1832      H1835   1.044       .  S
N1832      H1836   1.045       .  S
C1837      H1844   1.085       .  S
C1837      C1838   1.406       .  A
C1837      C1842   1.410       .  A
C1838      C1839   1.409       .  A
C1839      C1840   1.411       .  A
C1839      N1846   1.438       .  S
C1840      H1845   1.084       .  S
C1840      C1841   1.408       .  A
C1841      C1842   1.410       .  A
C1842      N1843   1.437       .  S
N1843      H1847   1.044       .  S
N1843      H1848   1.043       .  S
N1846      H1849   1.045       .  S
N1846      H1850   1.046       .  S
C1851      H1858   1.083       .  S
C1851      C1852   1.409       .  A
C1851      C1856   1.413       .  A
C1852      C1853   1.420       .  A
C1853      C1854   1.397       .  A
C1853      N1860   1.428       .  S
C1854      H1859   1.081       .  S
C1854      C1855   1.395       .  A
C1855      C1856   1.414       .  A
C1856      N1857   1.432       .  S
N1857      H1861   1.045       .  S
N1857      H1862   1.046       .  S
N1860      H1863   1.033       .  S
N1860      H2518   1.045       .  S
H1864      N2514   1.045   1_554  S
C1865      H1872   1.080       .  S
C1865      C1866   1.402       .  A
C1865      C1870   1.393       .  A
C1866      C1867   1.419       .  A
C1867      C1868   1.410       .  A
C1867      N1874   1.431       .  S
C1868      H1873   1.084       .  S
C1868      C1869   1.412       .  A
C1869      C1870   1.418       .  A
C1870      N1871   1.421       .  S
N1871      H2529   1.040       .  S
N1871      H1876   1.043       .  S
N1874      H1877   1.046       .  S
N1874      H1878   1.043       .  S
H1875      N2525   1.040       .  S
C1879      H1886   1.084       .  S
C1879      C1880   1.398       .  A
C1879      C1884   1.404       .  A
C1880      C1881   1.413       .  A
C1881      C1882   1.410       .  A
C1881      N1888   1.437       .  S
C1882      H1887   1.084       .  S
C1882      C1883   1.402       .  A
C1883      C1884   1.425       .  A
C1884      N1885   1.439       .  S
N1885      H1889   1.045       .  S
N1885      H1890   1.041       .  S
N1888      H1891   1.042       .  S
N1888      H1892   1.045       .  S
C1893      H1900   1.084       .  S
C1893      C1894   1.400       .  A
C1893      C1898   1.406       .  A
C1894      C1895   1.420       .  A
C1895      C1896   1.409       .  A
C1895      N1902   1.438       .  S
C1896      H1901   1.084       .  S
C1896      C1897   1.404       .  A
C1897      C1898   1.430       .  A
C1898      N1899   1.442       .  S
N1899      H1903   1.046       .  S
N1899      H1904   1.039       .  S
N1902      H1905   1.042       .  S
N1902      H1906   1.046       .  S
C1907      H1914   1.084       .  S
C1907      C1908   1.397       .  A
C1907      C1912   1.407       .  A
C1908      C1909   1.416       .  A
C1909      C1910   1.414       .  A
C1909      N1916   1.438       .  S
C1910      H1915   1.083       .  S
C1910      C1911   1.401       .  A
C1911      C1912   1.417       .  A
C1912      N1913   1.435       .  S
N1913      H1917   1.045       .  S
N1913      H1918   1.044       .  S
N1916      H1919   1.045       .  S
C1921      H1928   1.084       .  S
C1921      C1922   1.402       .  A
C1921      C1926   1.414       .  A
C1922      C1923   1.413       .  A
C1923      C1924   1.401       .  A
C1923      N1930   1.439       .  S
C1924      H1929   1.082       .  S
C1924      C1925   1.409       .  A
C1925      C1926   1.421       .  A
C1926      N1927   1.437       .  S
N1927      H1932   1.036       .  S
N1930      H1933   1.044       .  S
N1930      H1934   1.046       .  S
C1935      H1942   1.083       .  S
C1935      C1936   1.402       .  A
C1935      C1940   1.398       .  A
C1936      C1937   1.418       .  A
C1937      C1938   1.414       .  A
C1937      N1944   1.434       .  S
C1938      H1943   1.083       .  S
C1938      C1939   1.409       .  A
C1939      C1940   1.415       .  A
C1940      N1941   1.438       .  S
N1941      H1945   1.046       .  S
N1941      H1946   1.046       .  S
N1944      H1947   1.040       .  S
C1949      H1956   1.084       .  S
C1949      C1950   1.409       .  A
C1949      C1954   1.402       .  A
C1950      C1951   1.412       .  A
C1951      C1952   1.406       .  A
C1951      N1958   1.438       .  S
C1952      H1957   1.084       .  S
C1952      C1953   1.410       .  A
C1953      C1954   1.409       .  A
C1954      N1955   1.439       .  S
N1955      H1959   1.045       .  S
N1955      H1960   1.042       .  S
N1958      H1961   1.044       .  S
N1958      H1962   1.045       .  S
C1963      N1981   1.338       .  A
C1963      C2000   1.478       .  S
C1963      C2604   1.478       .  S
N1964      N1981   1.314       .  A
N1964      N1986   1.320       .  A
N1964     Co2001   2.064       .  S
C1965      N1990   1.333       .  A
C1965      C2003   1.453       .  S
C1965      H2010   1.082       .  S
H1966      C2007   1.082       .  S
C1967      N1991   1.335       .  A
C1967      C1971   1.465       .  S
C1967      H1996   1.079       .  S
Co1968     N1986   2.111       .  S
Co1968     N2008   2.120       .  S
Co1968    Cl2012   2.511       .  S
N1969      C2007   1.322       .  A
N1969      N1976   1.321       .  A
N1969     Co1970   2.058       .  S
Co1970     N1973   2.102       .  S
Co1970     N1990   2.069       .  S
Co1970     N1977   2.085       .  S
C1971      N2009   1.357       .  A
C1971      C2520   1.501       .  S
N1972      N1979   1.317       .  A
N1972      N2002   1.331       .  A
N1973      N1991   1.311       .  A
N1973      N2009   1.329       .  A
N1974      C2003   1.362       .  A
N1974      N1984   1.332       .  A
H1975      C2000   1.081       .  S
N1976      N1997   1.334       .  A
N1977      N1995   1.314       .  A
N1977      N1982   1.328       .  A
C1978      N1982   1.355       .  A
C1978      C2006   1.469       .  S
C1978      C2506   1.505       .  S
N1979      C1994   1.341       .  A
N1979     Co2001   2.072       .  S
C1980      N2008   1.352       .  A
C1980      C1983   1.477       .  S
C1980      H2014   1.081       .  S
C1983      N2004   1.339       .  A
C1983      C2576   1.479       .  S
N1984      N1990   1.321       .  A
N1985      C2011   1.342       .  A
N1985      N1987   1.314       .  A
N1985     Co2001   2.068       .  S
N1986      C2000   1.353       .  A
N1987      N2015   1.327       .  A
H1988      C2011   1.080       .  S
H1989      C2006   1.070       .  S
N1991     Co2005   2.060   1_556  S
N1992      N2004   1.317       .  A
N1992      N2008   1.324       .  A
N1992     Co2001   2.076       .  S
C1993      N1997   1.364       .  A
C1993      C2007   1.449       .  S
C1993      C2590   1.492       .  S
C1994      C2013   1.448       .  S
C1994      H1998   1.079       .  S
N1995      C2006   1.333       .  A
N1995     Co2005   2.084   1_556  S
C1999      N2015   1.355       .  A
C1999      C2011   1.456       .  S
C1999      C2537   1.485       .  S
Co2001    Cl2012   2.397       .  S
N2002      C2013   1.357       .  A
C2003      C2565   1.489       .  S
C2013      C2548   1.488       .  S
C2016      N2034   1.344       .  A
C2016      C2053   1.464       .  S
C2016      C2411   1.485       .  S
N2017      N2034   1.325       .  A
N2017      N2039   1.317       .  A
N2017     Co2054   2.064       .  S
C2018      N2043   1.339       .  A
C2018      C2056   1.452       .  S
C2018      H2063   1.080       .  S
H2019      C2060   1.081       .  S
C2020      N2044   1.352       .  A
C2020      C2024   1.480       .  S
C2020      H2049   1.081       .  S
Co2021     N2029   2.101       .  S
Co2021     N2037   2.125       .  S
N2022      C2060   1.343       .  A
N2022      N2029   1.315       .  A
N2022     Co2023   2.079       .  S
Co2023     N2026   2.063       .  S
Co2023     N2043   2.072       .  S
Co2023     N2030   2.074       .  S
C2024      N2062   1.337       .  A
C2024      C2478   1.477       .  S
N2025      N2032   1.320       .  A
N2025      N2055   1.332       .  A
N2025     Co2058   2.118       .  S
N2026      N2044   1.324       .  A
N2026      N2062   1.315       .  A
N2027      C2056   1.362       .  A
N2027      N2037   1.332       .  A
H2028      C2053   1.079       .  S
N2029      N2050   1.328       .  A
N2030      N2048   1.323       .  A
N2030      N2035   1.315       .  A
C2031      N2035   1.338       .  A
C2031      C2059   1.475       .  S
C2031      C2453   1.476       .  S
N2032      C2047   1.331       .  A
N2032     Co2054   2.064       .  S
C2033      N2061   1.340       .  A
C2033      C2036   1.472       .  S
C2033      H2067   1.074       .  S
C2036      N2057   1.349       .  A
C2036      C2394   1.500       .  S
N2037      N2043   1.316       .  A
N2038      C2064   1.320       .  A
N2038      N2040   1.319       .  A
N2038     Co2054   2.046       .  S
N2039      C2053   1.343       .  A
N2040      N2068   1.336       .  A
N2040     Co2058   2.131       .  S
H2041      C2064   1.082       .  S
H2042      C2059   1.081       .  S
N2045      N2057   1.327       .  A
N2045      N2061   1.313       .  A
N2045     Co2054   2.077       .  S
C2046      N2050   1.353       .  A
C2046      C2060   1.459       .  S
C2046      C2439   1.487       .  S
C2047      C2066   1.448       .  S
C2047      H2051   1.082       .  S
N2048      C2059   1.354       .  A
C2052      N2068   1.368       .  A
C2052      C2064   1.442       .  S
C2052      C2467   1.488       .  S
Co2054    Cl2065   2.390       .  S
N2055      C2066   1.362       .  A
C2056      C2425   1.491       .  S
Co2058    Cl2065   2.516       .  S
C2066      C2492   1.481       .  S
C2069      N2087   1.331       .  A
C2069      C2106   1.475       .  S
C2069      C2383   1.467       .  S
N2070      N2087   1.311       .  A
N2070      N2092   1.323       .  A
N2070     Co2107   2.053   1_545  S
C2071      N2096   1.325       .  A
C2071      C2109   1.442       .  S
C2071      H2116   1.082       .  S
H2072      C2113   1.082       .  S
C2073      N2097   1.339       .  A
C2073      C2077   1.471       .  S
C2073      H2102   1.076       .  S
Co2074     N2092   2.110   1_565  S
Co2074     N2082   2.130   1_565  S
Co2074     N2114   2.121       .  S
Co2074     N2090   2.103       .  S
Co2074    Cl2118   2.526       .  S
N2075      C2113   1.325       .  A
N2075      N2082   1.323       .  A
N2075     Co2076   2.047   1_545  S
Co2076     N2079   2.072   1_565  S
Co2076     N2096   2.048       .  S
Co2076     N2083   2.069       .  S
Co2076    Cl2118   2.379       .  S
C2077      N2115   1.347       .  A
C2077      C2408   1.496       .  S
N2078      N2085   1.315       .  A
N2078      N2108   1.332       .  A
N2078     Co2111   2.127   1_545  S
N2079      N2097   1.315       .  A
N2079      N2115   1.328       .  A
N2080      C2109   1.357       .  A
N2080      N2090   1.329       .  A
H2081      C2106   1.081       .  S
N2082      N2103   1.336       .  A
N2083      N2101   1.315       .  A
N2083      N2088   1.326       .  A
C2084      N2088   1.347       .  A
C2084      C2112   1.466       .  S
C2084      C2397   1.492       .  S
N2085      C2100   1.339       .  A
N2085     Co2107   2.060   1_545  S
C2086      N2114   1.358       .  A
C2086      C2089   1.484       .  S
C2086      H2120   1.081       .  S
C2089      N2110   1.334       .  A
C2089      C2355   1.485       .  S
N2090      N2096   1.322       .  A
N2091      C2117   1.339       .  A
N2091      N2093   1.314       .  A
N2091     Co2107   2.061       .  S
N2092      C2106   1.354       .  A
N2093      N2121   1.330       .  A
N2093     Co2111   2.115       .  S
H2094      C2117   1.080       .  S
H2095      C2112   1.078       .  S
N2097     Co2111   2.095   1_545  S
N2098      N2110   1.308       .  A
N2098      N2114   1.321       .  A
N2098     Co2107   2.050       .  S
C2099      N2103   1.364       .  A
C2099      C2113   1.434       .  S
C2099      C2369   1.478       .  S
C2100      C2119   1.450       .  S
C2100      H2104   1.080       .  S
N2101      C2112   1.343       .  A
N2101     Co2111   2.096       .  S
C2105      N2121   1.357       .  A
C2105      C2117   1.449       .  S
C2105      C2534   1.481       .  S
Co2107    Cl2118   2.386       .  S
N2108      C2119   1.362       .  A
C2109      C2338   1.475       .  S
Co2111    Cl2118   2.488       .  S
C2119      C2551   1.493       .  S
C2122      N2140   1.354       .  A
C2122      C2159   1.473       .  S
C2122      C2523   1.508       .  S
N2123      N2140   1.327       .  A
N2123      N2145   1.311       .  A
N2123     Co2160   2.079       .  S
C2124      N2149   1.339       .  A
C2124      C2162   1.449       .  S
C2124      H2169   1.080       .  S
H2125      C2166   1.079       .  S
C2126      N2150   1.353       .  A
C2126      C2130   1.470       .  S
C2126      H2155   1.081       .  S
Co2127     N2145   2.080   1_565  S
Co2127     N2135   2.113   1_565  S
Co2127     N2167   2.074       .  S
Co2127     N2143   2.109       .  S
Co2127    Cl2171   2.493       .  S
N2128      C2166   1.343       .  A
N2128      N2135   1.315       .  A
N2128     Co2129   2.072   1_545  S
Co2129     N2132   2.053   1_565  S
Co2129     N2149   2.063       .  S
Co2129     N2136   2.056       .  S
Co2129    Cl2171   2.379       .  S
C2130      N2168   1.330       .  A
C2130      C2313   1.461       .  S
N2131      N2138   1.320       .  A
N2131      N2161   1.335       .  A
N2131     Co2164   2.121       .  S
N2132      N2150   1.324       .  A
N2132      N2168   1.311       .  A
N2133      C2162   1.357       .  A
N2133      N2143   1.331       .  A
H2134      C2159   1.068       .  S
N2135      N2156   1.330       .  A
N2136      N2154   1.323       .  A
N2136      N2141   1.312       .  A
C2137      N2141   1.335       .  A
C2137      C2165   1.476       .  S
C2137      C2282   1.484       .  S
N2138      C2153   1.321       .  A
N2138     Co2160   2.042       .  S
C2139      N2167   1.335       .  A
C2139      C2142   1.464       .  S
C2139      H2173   1.077       .  S
C2142      N2163   1.351       .  A
C2142      C2509   1.491       .  S
N2143      N2149   1.314       .  A
N2144      C2170   1.326       .  A
N2144      N2146   1.322       .  A
N2144     Co2160   2.056   1_565  S
N2145      C2159   1.335       .  A
N2146      N2174   1.330       .  A
N2146     Co2164   2.106   1_565  S
H2147      C2170   1.081       .  S
H2148      C2165   1.081       .  S
N2150     Co2164   2.100       .  S
N2151      N2163   1.327       .  A
N2151      N2167   1.314       .  A
N2151     Co2160   2.078   1_565  S
C2152      N2156   1.355       .  A
C2152      C2166   1.454       .  S
C2152      C2436   1.493       .  S
C2153      C2172   1.439       .  S
C2153      H2157   1.082       .  S
N2154      C2165   1.351       .  A
N2154     Co2164   2.111   1_565  S
C2158      N2174   1.357       .  A
C2158      C2170   1.443       .  S
C2158      C2296   1.474       .  S
Co2160    Cl2171   2.373   1_545  S
N2161      C2172   1.364       .  A
C2162      C2422   1.485       .  S
Co2164    Cl2171   2.519   1_545  S
C2172      C2327   1.483       .  S
C2175      N2193   1.330       .  A
C2175      C2212   1.481       .  S
C2175      C2380   1.473       .  S
N2176      N2193   1.308       .  A
N2176      N2198   1.322       .  A
N2176     Co2213   2.045       .  S
C2177      N2202   1.318       .  A
C2177      C2215   1.441       .  S
C2177      H2222   1.082       .  S
H2178      C2219   1.082       .  S
C2179      N2203   1.345       .  A
C2179      C2183   1.462       .  S
C2179      H2208   1.079       .  S
Co2180     N2188   2.127       .  S
Co2180     N2196   2.123       .  S
Co2180    Cl2224   2.529       .  S
N2181      C2219   1.326       .  A
N2181      N2188   1.324       .  A
N2181     Co2182   2.060       .  S
Co2182     N2185   2.085       .  S
Co2182     N2202   2.047       .  S
Co2182     N2189   2.086       .  S
Co2182    Cl2224   2.365       .  S
C2183      N2221   1.352       .  A
C2183      C2495   1.488       .  S
N2184      N2191   1.314       .  A
N2184      N2214   1.329       .  A
N2185      N2203   1.315       .  A
N2185      N2221   1.326       .  A
N2186      C2215   1.365       .  A
N2186      N2196   1.336       .  A
H2187      C2212   1.081       .  S
N2188      N2209   1.336       .  A
N2189      N2207   1.314       .  A
N2189      N2194   1.325       .  A
C2190      N2194   1.349       .  A
C2190      C2218   1.466       .  S
C2190      C2481   1.497       .  S
N2191      C2206   1.338       .  A
N2191     Co2213   2.056       .  S
C2192      N2220   1.357       .  A
C2192      C2195   1.477       .  S
C2192      H2226   1.081       .  S
C2195      N2216   1.330       .  A
C2195      C2324   1.469       .  S
N2196      N2202   1.321       .  A
N2197      C2223   1.333       .  A
N2197      N2199   1.313       .  A
N2197     Co2213   2.064       .  S
N2198      C2212   1.357       .  A
N2199      N2227   1.331       .  A
H2200      C2223   1.075       .  S
H2201      C2218   1.080       .  S
N2203     Co2217   2.088       .  S
N2204      N2216   1.310       .  A
N2204      N2220   1.323       .  A
N2204     Co2213   2.054       .  S
C2205      N2209   1.363       .  A
C2205      C2219   1.443       .  S
C2205      C2366   1.492       .  S
C2206      C2225   1.447       .  S
C2206      H2210   1.079       .  S
N2207      C2218   1.348       .  A
N2207     Co2217   2.085       .  S
C2211      N2227   1.357       .  A
C2211      C2223   1.455       .  S
C2211      C2593   1.494       .  S
N2214      C2225   1.354       .  A
C2215      C2310   1.488       .  S
Co2217    Cl2224   2.515       .  S
C2225      C2607   1.480       .  S
C2228      N2246   1.354       .  A
C2228      C2265   1.471       .  S
C2228      C2579   1.504       .  S
N2229      N2246   1.324       .  A
N2229      N2251   1.314       .  A
N2229     Co2266   2.091       .  S
C2230      N2255   1.334       .  A
C2230      C2268   1.453       .  S
C2230      H2275   1.076       .  S
H2231      C2272   1.076       .  S
C2232      N2256   1.355       .  A
C2232      C2236   1.481       .  S
C2232      H2261   1.081       .  S
Co2233     N2241   2.119       .  S
Co2233     N2249   2.116       .  S
Co2233    Cl2277   2.503       .  S
N2234      C2272   1.333       .  A
N2234      N2241   1.312       .  A
N2234     Co2235   2.048       .  S
Co2235     N2238   2.064       .  S
Co2235     N2255   2.051       .  S
Co2235     N2242   2.066       .  S
Co2235    Cl2277   2.369       .  S
C2236      N2274   1.333       .  A
C2236      C2341   1.485       .  S
N2237      N2244   1.324       .  A
N2237      N2267   1.332       .  A
N2238      N2256   1.319       .  A
N2238      N2274   1.308       .  A
N2239      C2268   1.360       .  A
N2239      N2249   1.332       .  A
H2240      C2265   1.076       .  S
N2241      N2262   1.334       .  A
N2242      N2260   1.320       .  A
N2242      N2247   1.311       .  A
C2243      N2247   1.336       .  A
C2243      C2271   1.479       .  S
C2243      C2285   1.485       .  S
N2244      C2259   1.327       .  A
N2244     Co2266   2.059       .  S
C2245      N2273   1.347       .  A
C2245      C2248   1.461       .  S
C2245      H2279   1.080       .  S
C2248      N2269   1.349       .  A
C2248      C2562   1.484       .  S
N2249      N2255   1.312       .  A
N2250      C2276   1.328       .  A
N2250      N2252   1.323       .  A
N2250     Co2266   2.063       .  S
N2251      C2265   1.347       .  A
N2252      N2280   1.329       .  A
H2253      C2276   1.080       .  S
H2254      C2271   1.081       .  S
N2256     Co2270   2.098       .  S
N2257      N2269   1.325       .  A
N2257      N2273   1.315       .  A
N2257     Co2266   2.080       .  S
C2258      N2262   1.361       .  A
C2258      C2272   1.447       .  S
C2258      C2464   1.495       .  S
C2259      C2278   1.439       .  S
C2259      H2263   1.082       .  S
N2260      C2271   1.355       .  A
N2260     Co2270   2.104       .  S
C2264      N2280   1.357       .  A
C2264      C2276   1.448       .  S
C2264      C2299   1.481       .  S
N2267      C2278   1.358       .  A
C2268      C2450   1.503       .  S
Co2270    Cl2277   2.521       .  S
C2278      C2352   1.469       .  S
C2281      H2288   1.084       .  S
C2281      C2282   1.418       .  A
C2281      C2286   1.403       .  A
C2282      C2283   1.405       .  A
C2283      C2284   1.398       .  A
C2283      N2290   1.438       .  S
C2284      H2289   1.080       .  S
C2284      C2285   1.414       .  A
C2285      C2286   1.407       .  A
C2286      N2287   1.437       .  S
N2287      H2291   1.046       .  S
N2287      H2292   1.043       .  S
N2290      H2293   1.041       .  S
N2290      H2294   1.046       .  S
C2295      H2302   1.084       .  S
C2295      C2296   1.393       .  A
C2295      C2300   1.404       .  A
C2296      C2297   1.416       .  A
C2297      C2298   1.400       .  A
C2297      N2304   1.433       .  S
C2298      H2303   1.084       .  S
C2298      C2299   1.396       .  A
C2299      C2300   1.424       .  A
C2300      N2301   1.437       .  S
N2301      H2305   1.046       .  S
N2301      H2306   1.045       .  S
N2304      H2307   1.045       .  S
N2304      H2308   1.046       .  S
C2309      H2316   1.078       .  S
C2309      C2310   1.407       .  A
C2309      C2314   1.392       .  A
C2310      C2311   1.412       .  A
C2311      C2312   1.417       .  A
C2311      N2318   1.436       .  S
C2312      H2317   1.084       .  S
C2312      C2313   1.411       .  A
C2313      C2314   1.400       .  A
C2314      N2315   1.440       .  S
N2315      H2319   1.046       .  S
N2315      H2320   1.045       .  S
N2318      H2321   1.044       .  S
N2318      H2322   1.046       .  S
C2323      H2330   1.084       .  S
C2323      C2324   1.408       .  A
C2323      C2328   1.417       .  A
C2324      C2325   1.408       .  A
C2325      C2326   1.397       .  A
C2325      N2332   1.441       .  S
C2326      H2331   1.085       .  S
C2326      C2327   1.405       .  A
C2327      C2328   1.414       .  A
C2328      N2329   1.437       .  S
N2329      H2333   1.046       .  S
N2329      H2334   1.046       .  S
N2332      H2335   1.044       .  S
N2332      H2336   1.046       .  S
C2337      H2344   1.084       .  S
C2337      C2338   1.414       .  A
C2337      C2342   1.403       .  A
C2338      C2339   1.393       .  A
C2339      C2340   1.398       .  A
C2339      N2346   1.437       .  S
C2340      H2345   1.079       .  S
C2340      C2341   1.418       .  A
C2341      C2342   1.410       .  A
C2342      N2343   1.437       .  S
N2343      H2347   1.046       .  S
N2343      H2348   1.041       .  S
N2346      H2349   1.045       .  S
N2346      H2350   1.045       .  S
C2351      H2358   1.083       .  S
C2351      C2352   1.409       .  A
C2351      C2356   1.416       .  A
C2352      C2353   1.402       .  A
C2353      C2354   1.396       .  A
C2353      N2360   1.439       .  S
C2354      H2359   1.084       .  S
C2354      C2355   1.409       .  A
C2355      C2356   1.413       .  A
C2356      N2357   1.436       .  S
N2357      H2361   1.046       .  S
N2357      H2362   1.044       .  S
N2360      H2363   1.044       .  S
N2360      H2364   1.046       .  S
C2365      H2372   1.085       .  S
C2365      C2366   1.404       .  A
C2365      C2370   1.395       .  A
C2366      C2367   1.425       .  A
C2367      C2368   1.416       .  A
C2367      N2374   1.437       .  S
C2368      H2373   1.084       .  S
C2368      C2369   1.408       .  A
C2369      C2370   1.414       .  A
C2370      N2371   1.441       .  S
N2371      H2375   1.046       .  S
N2371      H2376   1.044       .  S
N2374      H2377   1.039       .  S
N2374      H2378   1.046       .  S
C2379      H2386   1.083       .  S
C2379      C2380   1.405       .  A
C2379      C2384   1.415       .  A
C2380      C2381   1.413       .  A
C2381      C2382   1.397       .  A
C2381      N2388   1.440       .  S
C2382      H2387   1.085       .  S
C2382      C2383   1.398       .  A
C2383      C2384   1.414       .  A
C2384      N2385   1.436       .  S
N2385      H2389   1.046       .  S
N2385      H2390   1.045       .  S
N2388      H2391   1.045       .  S
N2388      H2392   1.046       .  S
C2393      H2400   1.083       .  S
C2393      C2394   1.406       .  A
C2393      C2398   1.417       .  A
C2394      C2395   1.409       .  A
C2395      C2396   1.401       .  A
C2395      N2402   1.423       .  S
C2396      H2401   1.084       .  S
C2396      C2397   1.394       .  A
C2397      C2398   1.420       .  A
C2398      N2399   1.437       .  S
N2399      H2403   1.046       .  S
N2399      H2404   1.045       .  S
N2402      H2405   1.043       .  S
C2407      H2414   1.083       .  S
C2407      C2408   1.405       .  A
C2407      C2412   1.412       .  A
C2408      C2409   1.407       .  A
C2409      C2410   1.399       .  A
C2409      N2416   1.421       .  S
C2410      H2415   1.085       .  S
C2410      C2411   1.390       .  A
C2411      C2412   1.422       .  A
C2412      N2413   1.431       .  S
N2413      H2417   1.045       .  S
N2413      H2418   1.045       .  S
N2416      H2419   1.044       .  S
N2416      H2420   1.040       .  S
C2421      H2428   1.084       .  S
C2421      C2422   1.408       .  A
C2421      C2426   1.416       .  A
C2422      C2423   1.410       .  A
C2423      C2424   1.409       .  A
C2423      N2430   1.438       .  S
C2424      H2429   1.084       .  S
C2424      C2425   1.407       .  A
C2425      C2426   1.409       .  A
C2426      N2427   1.434       .  S
N2427      H2431   1.045       .  S
N2427      H2432   1.043       .  S
N2430      H2433   1.045       .  S
N2430      H2434   1.046       .  S
C2435      H2442   1.083       .  S
C2435      C2436   1.406       .  A
C2435      C2440   1.408       .  A
C2436      C2437   1.408       .  A
C2437      C2438   1.403       .  A
C2437      N2444   1.426       .  S
C2438      H2443   1.084       .  S
C2438      C2439   1.405       .  A
C2439      C2440   1.419       .  A
C2440      N2441   1.438       .  S
N2441      H2445   1.045       .  S
N2441      H2446   1.043       .  S
N2444      H2447   1.045       .  S
C2449      H2456   1.079       .  S
C2449      C2450   1.410       .  A
C2449      C2454   1.398       .  A
C2450      C2451   1.417       .  A
C2451      C2452   1.416       .  A
C2451      N2458   1.435       .  S
C2452      H2457   1.080       .  S
C2452      C2453   1.404       .  A
C2453      C2454   1.410       .  A
C2454      N2455   1.440       .  S
N2455      H2459   1.046       .  S
N2455      H2460   1.045       .  S
N2458      H2461   1.045       .  S
N2458      H2462   1.046       .  S
C2463      H2470   1.074       .  S
C2463      C2464   1.407       .  A
C2463      C2468   1.417       .  A
C2464      C2465   1.415       .  A
C2465      C2466   1.401       .  A
C2465      N2472   1.438       .  S
C2466      H2471   1.085       .  S
C2466      C2467   1.406       .  A
C2467      C2468   1.407       .  A
C2468      N2469   1.434       .  S
N2469      H2473   1.042       .  S
N2469      H2474   1.046       .  S
N2472      H2475   1.046       .  S
N2472      H2476   1.046       .  S
C2477      H2484   1.085       .  S
C2477      C2478   1.400       .  A
C2477      C2482   1.404       .  A
C2478      C2479   1.414       .  A
C2479      C2480   1.406       .  A
C2479      N2486   1.430       .  S
C2480      H2485   1.080       .  S
C2480      C2481   1.406       .  A
C2481      C2482   1.415       .  A
C2482      N2483   1.429       .  S
N2483      H2487   1.046       .  S
N2483      H2488   1.046       .  S
N2486      H2489   1.044       .  S
N2486      H2490   1.045       .  S
C2491      H2498   1.085       .  S
C2491      C2492   1.406       .  A
C2491      C2496   1.410       .  A
C2492      C2493   1.409       .  A
C2493      C2494   1.411       .  A
C2493      N2500   1.438       .  S
C2494      H2499   1.084       .  S
C2494      C2495   1.408       .  A
C2495      C2496   1.410       .  A
C2496      N2497   1.437       .  S
N2497      H2501   1.044       .  S
N2497      H2502   1.043       .  S
N2500      H2503   1.045       .  S
N2500      H2504   1.046       .  S
C2505      H2512   1.083       .  S
C2505      C2506   1.409       .  A
C2505      C2510   1.413       .  A
C2506      C2507   1.420       .  A
C2507      C2508   1.397       .  A
C2507      N2514   1.428       .  S
C2508      H2513   1.081       .  S
C2508      C2509   1.395       .  A
C2509      C2510   1.414       .  A
C2510      N2511   1.432       .  S
N2511      H2515   1.045       .  S
N2511      H2516   1.046       .  S
N2514      H2517   1.033   1_556  S
C2519      H2526   1.080       .  S
C2519      C2520   1.402       .  A
C2519      C2524   1.393       .  A
C2520      C2521   1.419       .  A
C2521      C2522   1.410       .  A
C2521      N2528   1.431       .  S
C2522      H2527   1.084       .  S
C2522      C2523   1.412       .  A
C2523      C2524   1.418       .  A
C2524      N2525   1.421       .  S
N2525      H2530   1.043   1_556  S
N2528      H2531   1.046       .  S
N2528      H2532   1.043       .  S
C2533      H2540   1.084       .  S
C2533      C2534   1.398       .  A
C2533      C2538   1.404       .  A
C2534      C2535   1.413       .  A
C2535      C2536   1.410       .  A
C2535      N2542   1.437       .  S
C2536      H2541   1.084       .  S
C2536      C2537   1.402       .  A
C2537      C2538   1.425       .  A
C2538      N2539   1.439       .  S
N2539      H2543   1.045       .  S
N2539      H2544   1.041       .  S
N2542      H2545   1.042       .  S
N2542      H2546   1.045       .  S
C2547      H2554   1.084       .  S
C2547      C2548   1.400       .  A
C2547      C2552   1.406       .  A
C2548      C2549   1.420       .  A
C2549      C2550   1.409       .  A
C2549      N2556   1.438       .  S
C2550      H2555   1.084       .  S
C2550      C2551   1.404       .  A
C2551      C2552   1.430       .  A
C2552      N2553   1.442       .  S
N2553      H2557   1.046       .  S
N2553      H2558   1.039       .  S
N2556      H2559   1.042       .  S
N2556      H2560   1.046       .  S
C2561      H2568   1.084       .  S
C2561      C2562   1.397       .  A
C2561      C2566   1.407       .  A
C2562      C2563   1.416       .  A
C2563      C2564   1.414       .  A
C2563      N2570   1.438       .  S
C2564      H2569   1.083       .  S
C2564      C2565   1.401       .  A
C2565      C2566   1.417       .  A
C2566      N2567   1.435       .  S
N2567      H2571   1.045       .  S
N2567      H2572   1.044       .  S
N2570      H2573   1.045       .  S
C2575      H2582   1.084       .  S
C2575      C2576   1.402       .  A
C2575      C2580   1.414       .  A
C2576      C2577   1.413       .  A
C2577      C2578   1.401       .  A
C2577      N2584   1.439       .  S
C2578      H2583   1.082       .  S
C2578      C2579   1.409       .  A
C2579      C2580   1.421       .  A
C2580      N2581   1.437       .  S
N2581      H2586   1.036       .  S
N2584      H2587   1.044       .  S
N2584      H2588   1.046       .  S
C2589      H2596   1.083       .  S
C2589      C2590   1.402       .  A
C2589      C2594   1.398       .  A
C2590      C2591   1.418       .  A
C2591      C2592   1.414       .  A
C2591      N2598   1.434       .  S
C2592      H2597   1.083       .  S
C2592      C2593   1.409       .  A
C2593      C2594   1.415       .  A
C2594      N2595   1.438       .  S
N2595      H2599   1.046       .  S
N2595      H2600   1.046       .  S
N2598      H2601   1.040       .  S
C2603      H2610   1.084       .  S
C2603      C2604   1.409       .  A
C2603      C2608   1.402       .  A
C2604      C2605   1.412       .  A
C2605      C2606   1.406       .  A
C2605      N2612   1.438       .  S
C2606      H2611   1.084       .  S
C2606      C2607   1.410       .  A
C2607      C2608   1.409       .  A
C2608      N2609   1.439       .  S
N2609      H2613   1.045       .  S
N2609      H2614   1.042       .  S
N2612      H2615   1.044       .  S
N2612      H2616   1.045       .  S
