geometry optimzed in LAMMPS
_audit_creation_date              2020-11-30 
_audit_creation_method            'lammps2cif' 
_symmetry_space_group_name_H-M    'P1' 
_symmetry_Int_Tables_number       1 
_symmetry_cell_setting            triclinic 
loop_ 
_symmetry_equiv_pos_as_xyz 
  x,y,z 
_cell_length_a                    35.1263589 
_cell_length_b                    35.29185030509515 
_cell_length_c                    35.042982145572395 
_cell_angle_alpha                 90.07859224414284 
_cell_angle_beta                  90.03716508923608 
_cell_angle_gamma                 89.84500921578298 
loop_ 
_atom_site_label 
_atom_site_type_symbol 
_atom_site_fract_x 
_atom_site_fract_y 
_atom_site_fract_z 
_atom_site_charge 
N1          N  0.55443515  0.09262323  0.49973186    -0.36800
N2          N  0.50017277  0.09175082  0.56281748    -0.57400
N3          N  0.44060711  0.08955216  0.50272593    -0.36800
N4          N  0.49458311  0.09442944  0.43964645    -0.57400
C5          C  0.57833602  0.09487754  0.53016256     0.26800
C6          C  0.57550249  0.09725331  0.46766997     0.26800
C7          C  0.41989713  0.09494771  0.53493561     0.26800
C8          C  0.41708031  0.09512064  0.47248216     0.26800
C9          C  0.53176127  0.07938543  0.58144369     0.35400
C10         C  0.46980181  0.07964764  0.58330215     0.35400
C11         C  0.52522511  0.08403881  0.41847918     0.35400
C12         C  0.46318646  0.08289419  0.42015491     0.35400
C13         C  0.61481259  0.10250105  0.51727772    -0.22100
C14         C  0.61303762  0.10404495  0.47803036    -0.22100
C15         C  0.38296888  0.10489360  0.52497186    -0.22100
C16         C  0.38118780  0.10493285  0.48566694    -0.22100
C17         C  0.52134965  0.06090196  0.61470077    -0.23100
C18         C  0.48218628  0.06109943  0.61589708    -0.23100
C19         C  0.51307495  0.06760399  0.38461055    -0.23100
C20         C  0.47388564  0.06687291  0.38568740    -0.23100
C21         C  0.56974702  0.08275774  0.56788209    -0.18500
C22         C  0.56397322  0.08682889  0.43013556    -0.18500
C23         C  0.42524383  0.08475943  0.43414800    -0.18500
C24         C  0.43110634  0.08348570  0.57214298    -0.18500
H25         H  0.64051445  0.10407102  0.53426343     0.14400
H26         H  0.63719030  0.10685829  0.45908032     0.14400
H27         H  0.35919311  0.10930679  0.54412261     0.14400
H28         H  0.35584182  0.10951420  0.46868170     0.14400
H29         H  0.53998208  0.04754543  0.63532517     0.12700
H30         H  0.46482352  0.04791287  0.63762776     0.12700
H31         H  0.53065448  0.05610143  0.36201438     0.12700
H32         H  0.45548962  0.05470593  0.36415705     0.12700
H33         H  0.52739871  0.08129353  0.50030082     0.26000
H34         H  0.46656547  0.07565556  0.50159554     0.26000
N35         N  0.16062405  0.42966467  0.55488162    -0.36800
N36         N  0.16482831  0.48980820  0.49740752    -0.57400
N37         N  0.15993921  0.42693138  0.44120263    -0.36800
N38         N  0.15993546  0.36709084  0.49842942    -0.57400
C39         C  0.16640281  0.46095538  0.57676528     0.26800
C40         C  0.16528658  0.39876624  0.57749033     0.26800
C41         C  0.16691521  0.45734409  0.41870166     0.26800
C42         C  0.16287974  0.39539738  0.41913745     0.26800
C43         C  0.15306455  0.51044779  0.52800486     0.35400
C44         C  0.15357702  0.50898020  0.46577127     0.35400
C45         C  0.14855407  0.34833512  0.53016200     0.35400
C46         C  0.14659034  0.34721619  0.46803500     0.35400
C47         C  0.17567612  0.44970836  0.61350717    -0.22100
C48         C  0.17502240  0.41065757  0.61396049    -0.22100
C49         C  0.17559360  0.44477678  0.38213667    -0.22100
C50         C  0.17290856  0.40583672  0.38239528    -0.22100
C51         C  0.13580607  0.54360466  0.51570390    -0.23100
C52         C  0.13612871  0.54268760  0.47636559    -0.23100
C53         C  0.12928122  0.31562793  0.51978176    -0.23100
C54         C  0.12799053  0.31496970  0.48048590    -0.23100
C55         C  0.15585924  0.49862819  0.56671886    -0.18500
C56         C  0.15375330  0.36116239  0.56829747    -0.18500
C57         C  0.14968945  0.35877442  0.42936314    -0.18500
C58         C  0.15675520  0.49539768  0.42764813    -0.18500
H59         H  0.18006610  0.46788182  0.63802101     0.14400
H60         H  0.17885652  0.39301972  0.63892380     0.14400
H61         H  0.18042328  0.46212693  0.35715941     0.14400
H62         H  0.17556196  0.38744430  0.35778473     0.14400
H63         H  0.12312500  0.56554058  0.53321297     0.12700
H64         H  0.12365786  0.56379416  0.45775727     0.12700
H65         H  0.11637863  0.29500585  0.53855787     0.12700
H66         H  0.11401087  0.29376134  0.46313470     0.12700
H67         H  0.14722727  0.42956462  0.52862063     0.26000
H68         H  0.14648660  0.42816561  0.46740298     0.26000
N69         N  0.49895267  0.76574769  0.56244403    -0.36800
N70         N  0.55667770  0.76283580  0.50190555    -0.57400
N71         N  0.50034326  0.76560887  0.44020121    -0.36800
N72         N  0.44246591  0.76822460  0.50052506    -0.57400
C73         C  0.53032285  0.77774341  0.58167806     0.26800
C74         C  0.46794292  0.77916106  0.58133742     0.26800
C75         C  0.53234746  0.77755726  0.42210558     0.26800
C76         C  0.46999957  0.78017780  0.42103041     0.26800
C77         C  0.57898141  0.75938368  0.53329885     0.35400
C78         C  0.57971065  0.75814297  0.47120013     0.35400
C79         C  0.41913863  0.76586524  0.53131212     0.35400
C80         C  0.41985976  0.76616466  0.46912907     0.35400
C81         C  0.51900172  0.79739998  0.61405089    -0.22100
C82         C  0.47975908  0.79819458  0.61390096    -0.22100
C83         C  0.52206140  0.79867051  0.39031933    -0.22100
C84         C  0.48286760  0.80030007  0.38964167    -0.22100
C85         C  0.61600785  0.75099432  0.52243972    -0.23100
C86         C  0.61646046  0.75016255  0.48326569    -0.23100
C87         C  0.38183045  0.76110625  0.51927984    -0.23100
C88         C  0.38228364  0.76132890  0.48011595    -0.23100
C89         C  0.56882676  0.77270736  0.57011829    -0.18500
C90         C  0.42941802  0.77627013  0.56914140    -0.18500
C91         C  0.43110087  0.77690155  0.43175533    -0.18500
C92         C  0.57058419  0.77092637  0.43399239    -0.18500
H93         H  0.53712855  0.81067639  0.63514530     0.14400
H94         H  0.46200614  0.81231564  0.63479934     0.14400
H95         H  0.54085354  0.81228914  0.37010927     0.14400
H96         H  0.46584155  0.81550009  0.36891837     0.14400
H97         H  0.64070060  0.74874927  0.54081242     0.12700
H98         H  0.64160238  0.74728851  0.46563998     0.12700
H99         H  0.35657702  0.76025617  0.53694995     0.12700
H100        H  0.35746282  0.76069918  0.46179607     0.12700
H101        H  0.49864277  0.74869368  0.53817334     0.26000
H102        H  0.49922513  0.74757826  0.46369071     0.26000
N103        N  0.84094395  0.42645458  0.43907700    -0.36800
N104        N  0.84035276  0.48936756  0.49417064    -0.57400
N105        N  0.84145149  0.43013671  0.55337460    -0.36800
N106        N  0.83714823  0.36723376  0.49832509    -0.57400
C107        C  0.83738218  0.45671286  0.41544436     0.26800
C108        C  0.83683471  0.39463727  0.41771148     0.26800
C109        C  0.83836972  0.46217480  0.57460580     0.26800
C110        C  0.83504535  0.40018411  0.57677966     0.26800
C111        C  0.85047633  0.50865936  0.46227205     0.35400
C112        C  0.85187182  0.51051874  0.52443295     0.35400
C113        C  0.84848394  0.34584791  0.46812451     0.35400
C114        C  0.84703098  0.34783112  0.53028997     0.35400
C115        C  0.82993414  0.44389352  0.37876544    -0.22100
C116        C  0.82954127  0.40491062  0.38019338    -0.22100
C117        C  0.82910706  0.45247344  0.61177830    -0.22100
C118        C  0.82696895  0.41351549  0.61313703    -0.22100
C119        C  0.86647056  0.54311899  0.47240676    -0.23100
C120        C  0.86741706  0.54425574  0.51169122    -0.23100
C121        C  0.86397242  0.31202842  0.48098171    -0.23100
C122        C  0.86298200  0.31324196  0.52025515    -0.23100
C123        C  0.84797419  0.49460499  0.42427397    -0.18500
C124        C  0.84692478  0.35726194  0.42924761    -0.18500
C125        C  0.84390010  0.36172602  0.56831669    -0.18500
C126        C  0.85033242  0.49894393  0.56325608    -0.18500
H127        H  0.82743099  0.46087739  0.35317899     0.14400
H128        H  0.82669755  0.38614599  0.35589733     0.14400
H129        H  0.82628623  0.47147494  0.63589492     0.14400
H130        H  0.82235715  0.39673410  0.63854329     0.14400
H131        H  0.87758167  0.56462190  0.45347672     0.12700
H132        H  0.87929981  0.56683138  0.52886287     0.12700
H133        H  0.87585016  0.28932947  0.46390138     0.12700
H134        H  0.87397201  0.29165939  0.53924759     0.12700
H135        H  0.85268669  0.42724151  0.46613769     0.26000
H136        H  0.85439215  0.42857773  0.52688094     0.26000
N137        N  0.55972142  0.43250281  0.16119964    -0.36800
N138        N  0.49851954  0.37622116  0.16024848    -0.57400
N139        N  0.43690582  0.43299044  0.16201752    -0.36800
N140        N  0.49823011  0.48942166  0.16123829    -0.57400
C141        C  0.57887501  0.40158265  0.14803774     0.26800
C142        C  0.57853347  0.46381259  0.14901330     0.26800
C143        C  0.41762991  0.40180526  0.15010353     0.26800
C144        C  0.41782827  0.46397057  0.14904775     0.26800
C145        C  0.52963390  0.35348503  0.16376111     0.35400
C146        C  0.46756037  0.35378243  0.16536213     0.35400
C147        C  0.52918164  0.51187964  0.16606077     0.35400
C148        C  0.46715147  0.51209205  0.16486524     0.35400
C149        C  0.61119814  0.41341032  0.12878966    -0.22100
C150        C  0.61100939  0.45257428  0.12942415    -0.22100
C151        C  0.38494689  0.41317266  0.13100038    -0.22100
C152        C  0.38509791  0.45230691  0.13029349    -0.22100
C153        C  0.51829927  0.31683183  0.17203198    -0.23100
C154        C  0.47925233  0.31702945  0.17311983    -0.23100
C155        C  0.51756980  0.54862082  0.17407546    -0.23100
C156        C  0.47846398  0.54876257  0.17324817    -0.23100
C157        C  0.56709668  0.36318206  0.15191810    -0.18500
C158        C  0.56657908  0.50212875  0.15416976    -0.18500
C159        C  0.42991320  0.50229306  0.15254604    -0.18500
C160        C  0.42969104  0.36352092  0.15462820    -0.18500
H161        H  0.63225778  0.39571852  0.11489245     0.14400
H162        H  0.63197176  0.47069904  0.11614747     0.14400
H163        H  0.36373076  0.39515998  0.11790781     0.14400
H164        H  0.36397307  0.47008397  0.11662853     0.14400
H165        H  0.53631353  0.29203180  0.17465872     0.12700
H166        H  0.46133788  0.29236355  0.17661132     0.12700
H167        H  0.53550592  0.57330926  0.17735891     0.12700
H168        H  0.46040373  0.57352802  0.17592952     0.12700
H169        H  0.53560810  0.43229819  0.17847092     0.26000
H170        H  0.46136936  0.43306177  0.17881923     0.26000
N171        N  0.50213456  0.48343999  0.83956665    -0.36800
N172        N  0.56205742  0.42436160  0.83795085    -0.57400
N173        N  0.49897857  0.37079773  0.84733564    -0.36800
N174        N  0.43918243  0.42936728  0.84403232    -0.57400
C175        C  0.53389909  0.50392607  0.83193053     0.26800
C176        C  0.47150050  0.50659284  0.83491386     0.26800
C177        C  0.52907817  0.34735934  0.84121192     0.26800
C178        C  0.46686428  0.34972702  0.84436197     0.26800
C179        C  0.58341759  0.45513443  0.84678795     0.35400
C180        C  0.58159928  0.39351899  0.85049674     0.35400
C181        C  0.42004877  0.46153208  0.85341017     0.35400
C182        C  0.41838247  0.39986858  0.85739669     0.35400
C183        C  0.52318620  0.54027171  0.82131181    -0.22100
C184        C  0.48400088  0.54193607  0.82314614    -0.22100
C185        C  0.51583257  0.31118172  0.83352420    -0.22100
C186        C  0.47671617  0.31266500  0.83548637    -0.22100
C187        C  0.61741451  0.44359162  0.86332583    -0.23100
C188        C  0.61625912  0.40461933  0.86564780    -0.23100
C189        C  0.38611317  0.45227857  0.87127092    -0.23100
C190        C  0.38505513  0.41327442  0.87377371    -0.23100
C191        C  0.57174587  0.49349681  0.84218510    -0.18500
C192        C  0.43376151  0.49902636  0.84772980    -0.18500
C193        C  0.42986392  0.36121644  0.85613206    -0.18500
C194        C  0.56759718  0.35577770  0.85009430    -0.18500
H195        H  0.54189020  0.56384281  0.81528087     0.14400
H196        H  0.46674828  0.56699630  0.81862794     0.14400
H197        H  0.53278455  0.28586978  0.82924211     0.14400
H198        H  0.45770229  0.28871281  0.83284993     0.14400
H199        H  0.64017183  0.46144864  0.87375640     0.12700
H200        H  0.63790159  0.38663420  0.87818133     0.12700
H201        H  0.36481847  0.47161674  0.88228978     0.12700
H202        H  0.36278964  0.39676144  0.88704645     0.12700
H203        H  0.50190808  0.45789444  0.85408168     0.26000
H204        H  0.50052444  0.39732664  0.85999531     0.26000
N205        N  0.99363840  0.59091882  0.05941802    -0.36800
N206        N  0.94032811  0.59037338  0.99532758    -0.57400
N207        N  0.00082372  0.59379267  0.93692695    -0.36800
N208        N  0.05414287  0.59305163  0.00134984    -0.57400
C209        C  0.96205141  0.57673321  0.07658929     0.26800
C210        C  0.02425812  0.57951725  0.08013932     0.26800
C211        C  0.97083702  0.58172736  0.91571313     0.26800
C212        C  0.03313268  0.58188187  0.91918674     0.26800
C213        C  0.91552574  0.59134556  0.02502620     0.35400
C214        C  0.91936853  0.59492913  0.96312787     0.35400
C215        C  0.07495674  0.59734143  0.03371125     0.35400
C216        C  0.07870215  0.59656605  0.97166893     0.35400
C217        C  0.97264865  0.55778964  0.10958521    -0.22100
C218        C  0.01179484  0.55954119  0.11182940    -0.22100
C219        C  0.98432149  0.56380261  0.88313524    -0.22100
C220        C  0.02352343  0.56388424  0.88533358    -0.22100
C221        C  0.87892462  0.59758090  0.01169964    -0.23100
C222        C  0.88135739  0.60008264  0.97271693    -0.23100
C223        C  0.11254757  0.60484706  0.02436456    -0.23100
C224        C  0.11492081  0.60423584  0.98527574    -0.23100
C225        C  0.92409853  0.57939183  0.06268728    -0.18500
C226        C  0.06315325  0.58521835  0.07044846    -0.18500
C227        C  0.07086479  0.58528512  0.93354682    -0.18500
C228        C  0.93175067  0.58459738  0.92592676    -0.18500
H229        H  0.95419677  0.54328899  0.12948346     0.14400
H230        H  0.02915834  0.54662601  0.13380399     0.14400
H231        H  0.96765639  0.55088185  0.86064877     0.14400
H232        H  0.04268504  0.55104373  0.86485963     0.14400
H233        H  0.85288264  0.59790268  0.02820422     0.12700
H234        H  0.85744494  0.60228972  0.95332661     0.12700
H235        H  0.13634648  0.60755715  0.04381535     0.12700
H236        H  0.14082840  0.60666544  0.96875243     0.12700
H237        H  0.99430256  0.60822093  0.03539147     0.26000
H238        H  0.99922715  0.60974041  0.96189586     0.26000
N239        N  0.66061834  0.86411105  0.00276197    -0.36800
N240        N  0.66051441  0.92665638  0.05834920    -0.57400
N241        N  0.66317543  0.98566180  0.99902012    -0.36800
N242        N  0.66238325  0.92304736  0.94351652    -0.57400
C243        C  0.64674655  0.84652533  0.03433260     0.26800
C244        C  0.64827531  0.84449316  0.97170781     0.26800
C245        C  0.65130349  0.00630768  0.02960953     0.26800
C246        C  0.65144546  0.00408961  0.96699462     0.26800
C247        C  0.66257056  0.89641489  0.08226578     0.35400
C248        C  0.66408938  0.95820544  0.08034434     0.35400
C249        C  0.66629668  0.89140444  0.92175399     0.35400
C250        C  0.66606447  0.95316000  0.91970791     0.35400
C251        C  0.62655792  0.81463237  0.02316695    -0.22100
C252        C  0.62749608  0.81337261  0.98380032    -0.22100
C253        C  0.63365337  0.03910964  0.01676085    -0.22100
C254        C  0.63371989  0.03770120  0.97742786    -0.22100
C255        C  0.66853406  0.90889484  0.11930879    -0.23100
C256        C  0.66947907  0.94776772  0.11809791    -0.23100
C257        C  0.67379954  0.90164605  0.88429895    -0.23100
C258        C  0.67345196  0.94054289  0.88299146    -0.23100
C259        C  0.65105120  0.85893748  0.07284019    -0.18500
C260        C  0.65418062  0.85458598  0.93279489    -0.18500
C261        C  0.65499487  0.99087508  0.92869501    -0.18500
C262        C  0.65423447  0.99561241  0.06872056    -0.18500
H263        H  0.61187296  0.79475683  0.04143471     0.14400
H264        H  0.61364891  0.79236879  0.96608856     0.14400
H265        H  0.62097514  0.06130891  0.03393360     0.14400
H266        H  0.62117954  0.05864573  0.95867429     0.14400
H267        H  0.66953515  0.89181574  0.14492873     0.12700
H268        H  0.67133833  0.96638963  0.14259999     0.12700
H269        H  0.67634989  0.88295565  0.85990422     0.12700
H270        H  0.67590627  0.95762137  0.85747729     0.12700
H271        H  0.67858772  0.88754358  0.00245703     0.26000
H272        H  0.67900936  0.96070077  0.99997776     0.26000
N273        N  0.99932115  0.26369847  0.06131448    -0.36800
N274        N  0.05467478  0.26983223  0.99838620    -0.57400
N275        N  0.99578061  0.27035841  0.93877831    -0.36800
N276        N  0.94038138  0.26600619  0.00118248    -0.57400
C277        C  0.03056330  0.27587968  0.08060290     0.26800
C278        C  0.96826380  0.27376469  0.08211745     0.26800
C279        C  0.02612351  0.28402165  0.91909039     0.26800
C280        C  0.96368628  0.28253517  0.92079181     0.26800
C281        C  0.07845124  0.26626525  0.02876114     0.35400
C282        C  0.07685457  0.26876689  0.96664579     0.35400
C283        C  0.91867705  0.26047116  0.03272828     0.35400
C284        C  0.91656987  0.26413550  0.97065903     0.35400
C285        C  0.01926676  0.29177587  0.11502242    -0.22100
C286        C  0.98007223  0.29047438  0.11596088    -0.22100
C287        C  0.01311922  0.30362829  0.88735741    -0.22100
C288        C  0.97387516  0.30272223  0.88844091    -0.22100
C289        C  0.11559106  0.26187027  0.01611327    -0.23100
C290        C  0.11458952  0.26341245  0.97701310    -0.23100
C291        C  0.88125077  0.25398321  0.02196274    -0.23100
C292        C  0.87991402  0.25636910  0.98289459    -0.23100
C293        C  0.06875234  0.27498357  0.06716293    -0.18500
C294        C  0.92960718  0.27036373  0.07051726    -0.18500
C295        C  0.92550746  0.27699879  0.93331892    -0.18500
C296        C  0.06513994  0.28043976  0.92961913    -0.18500
H297        H  0.03727756  0.30428437  0.13668547     0.14400
H298        H  0.96227553  0.30174847  0.13850183     0.14400
H299        H  0.03011125  0.31798085  0.86608986     0.14400
H300        H  0.95499985  0.31621338  0.86812913     0.14400
H301        H  0.14106805  0.26019167  0.03344136     0.12700
H302        H  0.13916576  0.26316696  0.95838599     0.12700
H303        H  0.85692678  0.25067634  0.04061316     0.12700
H304        H  0.85440550  0.25504729  0.96559615     0.12700
H305        H  0.99919992  0.24911475  0.03547304     0.26000
H306        H  0.99696242  0.25272125  0.96253863     0.26000
N307        N  0.33997327  0.93082852  0.05784201    -0.36800
N308        N  0.34244137  0.87062605  0.99989529    -0.57400
N309        N  0.34195976  0.93222586  0.94432914    -0.36800
N310        N  0.33502782  0.99297187  0.00239314    -0.57400
C311        C  0.33484678  0.89921389  0.07913182     0.26800
C312        C  0.33213502  0.96120831  0.08024787     0.26800
C313        C  0.33960810  0.90143443  0.92121426     0.26800
C314        C  0.33503495  0.96337610  0.92282103     0.26800
C315        C  0.35375758  0.85074800  0.03100964     0.35400
C316        C  0.35552272  0.85157771  0.96889634     0.35400
C317        C  0.34627999  0.01234949  0.03391012     0.35400
C318        C  0.34696016  0.01327070  0.97184104     0.35400
C319        C  0.32260685  0.90966120  0.11528159    -0.22100
C320        C  0.32097529  0.94869657  0.11599850    -0.22100
C321        C  0.33001015  0.91313251  0.88469345    -0.22100
C322        C  0.32705016  0.95207120  0.88571540    -0.22100
C323        C  0.37282242  0.81818671  0.01966798    -0.23100
C324        C  0.37390011  0.81869033  0.98034088    -0.23100
C325        C  0.36392994  0.04578882  0.02331873    -0.23100
C326        C  0.36433736  0.04639232  0.98403504    -0.23100
C327        C  0.34811027  0.86237575  0.06940725    -0.18500
C328        C  0.34263935  0.99912044  0.07194700    -0.18500
C329        C  0.34450956  0.00115318  0.93327274    -0.18500
C330        C  0.35208778  0.86420990  0.93058481    -0.18500
H331        H  0.31774437  0.89110826  0.13935745     0.14400
H332        H  0.31469146  0.96604245  0.14071915     0.14400
H333        H  0.32760391  0.89558118  0.85945012     0.14400
H334        H  0.32232090  0.97027910  0.86131636     0.14400
H335        H  0.38544727  0.79678336  0.03782816     0.12700
H336        H  0.38755684  0.79777348  0.96231172     0.12700
H337        H  0.37642882  0.06688842  0.04190069     0.12700
H338        H  0.37726841  0.06805203  0.96651074     0.12700
H339        H  0.35525224  0.93190697  0.03232830     0.26000
H340        H  0.35481995  0.93259763  0.97118715     0.26000
N341        N  0.00091484  0.98913957  0.66204698    -0.36800
N342        N  0.06164914  0.93104686  0.66253182    -0.57400
N343        N  0.99918068  0.87624745  0.65861291    -0.36800
N344        N  0.93842130  0.93399243  0.66289099    -0.57400
C345        C  0.03248010  0.01043654  0.66817324     0.26800
C346        C  0.97001037  0.01196421  0.66644022     0.26800
C347        C  0.03004166  0.85339578  0.66279427     0.26800
C348        C  0.96770548  0.85496315  0.66501472     0.26800
C349        C  0.08250004  0.96200656  0.65316383     0.35400
C350        C  0.08127036  0.90022812  0.64993231     0.35400
C351        C  0.91891672  0.96528553  0.65151935     0.35400
C352        C  0.91776150  0.90348723  0.65162602     0.35400
C353        C  0.02128966  0.04701527  0.67765066    -0.22100
C354        C  0.98207685  0.04799689  0.67640121    -0.22100
C355        C  0.01804133  0.81735827  0.67275393    -0.22100
C356        C  0.97886663  0.81835275  0.67421574    -0.22100
C357        C  0.11632351  0.95061678  0.63619145    -0.23100
C358        C  0.11552202  0.91156808  0.63412871    -0.23100
C359        C  0.88489121  0.95457396  0.63462198    -0.23100
C360        C  0.88415344  0.91549454  0.63471092    -0.23100
C361        C  0.07037234  0.00033414  0.65752555    -0.18500
C362        C  0.93224487  0.00322020  0.65469782    -0.18500
C363        C  0.92989485  0.86511108  0.65453593    -0.18500
C364        C  0.06777733  0.86226632  0.65124459    -0.18500
H365        H  0.03965140  0.07115771  0.68239182     0.14400
H366        H  0.96446821  0.07294621  0.68015336     0.14400
H367        H  0.03566590  0.79241719  0.67644137     0.14400
H368        H  0.96048649  0.79424140  0.67895962     0.14400
H369        H  0.13871162  0.96860347  0.62528369     0.12700
H370        H  0.13717154  0.89368329  0.62144972     0.12700
H371        H  0.86334206  0.97296078  0.62252255     0.12700
H372        H  0.86197318  0.89794544  0.62262401     0.12700
H373        H  0.00068224  0.96293402  0.64853419     0.26000
H374        H  0.99931992  0.90234747  0.64490408     0.26000
N375        N  0.05960020  0.92553015  0.34498020    -0.36800
N376        N  0.00001052  0.86839335  0.33862808    -0.57400
N377        N  0.93743637  0.92453745  0.33398667    -0.36800
N378        N  0.99771311  0.98176236  0.34146839    -0.57400
C379        C  0.07838998  0.89458221  0.35841391     0.26800
C380        C  0.07756485  0.95669091  0.35874356     0.26800
C381        C  0.91858323  0.89285340  0.34513402     0.26800
C382        C  0.91707400  0.95497507  0.34644480     0.26800
C383        C  0.03140930  0.84589105  0.33795187     0.35400
C384        C  0.96975354  0.84571007  0.33128178     0.35400
C385        C  0.02855531  0.00493174  0.34085372     0.35400
C386        C  0.96666496  0.00415473  0.33585981     0.35400
C387        C  0.10953660  0.90629388  0.37967490    -0.22100
C388        C  0.10907164  0.94540390  0.37981390    -0.22100
C389        C  0.88498449  0.90337274  0.36313305    -0.22100
C390        C  0.88402445  0.94244413  0.36392456    -0.22100
C391        C  0.02111907  0.80906605  0.32897741    -0.23100
C392        C  0.98227344  0.80895863  0.32472426    -0.23100
C393        C  0.01701508  0.04187144  0.33386730    -0.23100
C394        C  0.97808275  0.04137877  0.33071709    -0.23100
C395        C  0.06756010  0.85617126  0.35280064    -0.18500
C396        C  0.06568708  0.99491937  0.35365720    -0.18500
C397        C  0.92853296  0.99356996  0.34432678    -0.18500
C398        C  0.93167435  0.85480232  0.34123896    -0.18500
H399        H  0.13004723  0.88853702  0.39427492     0.14400
H400        H  0.12913385  0.96343509  0.39461251     0.14400
H401        H  0.86383704  0.88482014  0.37548309     0.14400
H402        H  0.86207974  0.95961102  0.37709483     0.14400
H403        H  0.03943779  0.78435771  0.32821622     0.12700
H404        H  0.96481420  0.78406110  0.32053612     0.12700
H405        H  0.03466304  0.06696847  0.33346575     0.12700
H406        H  0.95992846  0.06603262  0.32767502     0.12700
H407        H  0.03658714  0.92551724  0.32624251     0.26000
H408        H  0.96269193  0.92531053  0.31842846     0.26000
C409        C  0.64647551  0.79805462  0.63976649     0.80000
N410        N  0.61642519  0.77900442  0.62373432    -0.78300
C411        C  0.59937053  0.79309105  0.59157948     0.82500
N412        N  0.61159080  0.82640051  0.57687657    -0.78200
C413        C  0.64054280  0.84586050  0.59320458     0.82600
N414        N  0.65854278  0.83080851  0.62388262    -0.79900
C415        C  0.65104780  0.05778844  0.63391270     0.80000
N416        N  0.65877774  0.02252215  0.62097449    -0.78300
C417        C  0.63774420  0.00648188  0.59289585     0.82500
N418        N  0.60896933  0.02660037  0.57698181    -0.78200
C419        C  0.60078356  0.06229001  0.58878185     0.82600
N420        N  0.62208418  0.07828397  0.61740252    -0.79900
C421        C  0.87491305  0.57122096  0.63860185     0.80000
N422        N  0.90747517  0.55560358  0.65199526    -0.78300
C423        C  0.92281493  0.52432897  0.63561584     0.82500
N424        N  0.90402637  0.50740359  0.60643007    -0.78200
C425        C  0.87075911  0.52172310  0.59291528     0.82600
N426        N  0.85623123  0.55424933  0.60871409    -0.79900
C427        C  0.13157264  0.56744853  0.64612553     0.80000
N428        N  0.09875995  0.55134169  0.65828184    -0.78300
C429        C  0.08320628  0.52157123  0.63934275     0.82500
N430        N  0.10221397  0.50639313  0.60945462    -0.78200
C431        C  0.13568540  0.52078846  0.59723348     0.82600
N432        N  0.15036613  0.55213363  0.61520896    -0.79900
C433        C  0.64415248  0.56908274  0.86543888     0.80000
N434        N  0.62622396  0.54041386  0.84584951    -0.78300
C435        C  0.59457272  0.52371981  0.86129736     0.82500
N436        N  0.58235419  0.53484763  0.89609803    -0.78200
C437        C  0.60071116  0.56190778  0.91613707     0.82600
N438        N  0.63087713  0.57972579  0.90013142    -0.79900
C439        C  0.63150932  0.58411186  0.13220129     0.80000
N440        N  0.62025756  0.59148526  0.09614830    -0.78300
C441        C  0.59398737  0.56971113  0.07853822     0.82500
N442        N  0.57799281  0.54065150  0.09796243    -0.78200
C443        C  0.58829368  0.53272124  0.13435484     0.82600
N444        N  0.61522253  0.55473867  0.15193173    -0.79900
C445        C  0.87353396  0.55965223  0.34303779     0.80000
N446        N  0.85292028  0.54395890  0.37228147    -0.78300
C447        C  0.86861579  0.51531562  0.39348879     0.82500
N448        N  0.90410922  0.50290426  0.38510723    -0.78200
C449        C  0.92453024  0.51839688  0.35643427     0.82600
N450        N  0.90876809  0.54630851  0.33515785    -0.79900
C451        C  0.13077689  0.56670090  0.35189672     0.80000
N452        N  0.09908160  0.54988739  0.33785820    -0.78300
C453        C  0.08539747  0.51769264  0.35371852     0.82500
N454        N  0.10540116  0.50077802  0.38191562    -0.78200
C455        C  0.13735018  0.51658560  0.39633097     0.82600
N456        N  0.14992560  0.55030815  0.38182588    -0.79900
C457        C  0.65474150  0.79451452  0.37172984     0.80000
N458        N  0.65896741  0.83139011  0.38102502    -0.78300
C459        C  0.63505463  0.84843902  0.40597114     0.82500
N460        N  0.60650178  0.82815038  0.42175721    -0.78200
C461        C  0.60156219  0.79110114  0.41315578     0.82600
N462        N  0.62605928  0.77378655  0.38813172    -0.79900
C463        C  0.64009524  0.06000229  0.35938158     0.80000
N464        N  0.61162756  0.08060536  0.37654048    -0.78300
C465        C  0.59309028  0.06586435  0.40748415     0.82500
N466        N  0.60213955  0.03069240  0.41977352    -0.78200
C467        C  0.62933656  0.00991454  0.40225665     0.82600
N468        N  0.64914325  0.02526316  0.37295977    -0.79900
C469        C  0.86573635  0.29563458  0.65021674     0.80000
N470        N  0.90212397  0.30587111  0.65692578    -0.78300
C471        C  0.91938035  0.33245852  0.63532882     0.82500
N472        N  0.89958914  0.34941663  0.60700332    -0.78200
C473        C  0.86305912  0.34001281  0.59951522     0.82600
N474        N  0.84556645  0.31297966  0.62144084    -0.79900
C475        C  0.13222033  0.28950269  0.64500126     0.80000
N476        N  0.15118180  0.30741303  0.61590116    -0.78300
C477        C  0.13559206  0.33924830  0.59977046     0.82500
N478        N  0.10111121  0.35151494  0.61170558    -0.78200
C479        C  0.08156106  0.33284543  0.63904514     0.82600
N480        N  0.09788423  0.30267521  0.65637630    -0.79900
C481        C  0.35181214  0.79940801  0.63975312     0.80000
N482        N  0.34023228  0.83299542  0.62543131    -0.78300
C483        C  0.35914682  0.84967464  0.59633736     0.82500
N484        N  0.38812692  0.83073876  0.57937691    -0.78200
C485        C  0.39933360  0.79615578  0.59186451     0.82600
N486        N  0.38176473  0.78060762  0.62302902    -0.79900
C487        C  0.35745771  0.06093706  0.64648979     0.80000
N488        N  0.34585376  0.02690026  0.63343557    -0.78300
C489        C  0.36233043  0.01058934  0.60266112     0.82500
N490        N  0.38964152  0.02975657  0.58352179    -0.78200
C491        C  0.40139520  0.06434402  0.59545532     0.82600
N492        N  0.38573313  0.07997199  0.62762804    -0.79900
C493        C  0.63172565  0.27304704  0.87349670     0.80000
N494        N  0.61624362  0.26294487  0.90734261    -0.78300
C495        C  0.58825103  0.28389342  0.92361336     0.82500
N496        N  0.57497263  0.31476155  0.90498633    -0.78200
C497        C  0.58896927  0.32518429  0.87059447     0.82600
N498        N  0.61767014  0.30414341  0.85445801    -0.79900
C499        C  0.63706473  0.28424358  0.13008564     0.80000
N500        N  0.62182338  0.31601866  0.14717972    -0.78300
C501        C  0.58927865  0.33211333  0.13253215     0.82500
N502        N  0.57334855  0.31681143  0.10085786    -0.78200
C503        C  0.58854288  0.28597510  0.08350637     0.82600
N504        N  0.61974823  0.26939719  0.09896209    -0.79900
C505        C  0.36460287  0.57853605  0.86985123     0.80000
N506        N  0.38033083  0.54757380  0.85179151    -0.78300
C507        C  0.41307897  0.53157723  0.86600826     0.82500
N508        N  0.42818287  0.54540670  0.89873505    -0.78200
C509        C  0.41177911  0.57462166  0.91768405     0.82600
N510        N  0.38114584  0.59211960  0.90196389    -0.79900
C511        C  0.35815089  0.57794491  0.12671837     0.80000
N512        N  0.37507881  0.54852335  0.14604110    -0.78300
C513        C  0.40800586  0.53272576  0.13221980     0.82500
N514        N  0.42261921  0.54563063  0.09888363    -0.78200
C515        C  0.40546049  0.57394960  0.07915121     0.82600
N516        N  0.37389691  0.59056557  0.09389787    -0.79900
C517        C  0.35432242  0.80006082  0.36002551     0.80000
N518        N  0.38352132  0.78086849  0.37765216    -0.78300
C519        C  0.40164778  0.79689901  0.40828081     0.82500
N520        N  0.39114556  0.83191400  0.41996683    -0.78200
C521        C  0.36327493  0.85150916  0.40200167     0.82600
N522        N  0.34415749  0.83494189  0.37278223    -0.79900
C523        C  0.34870923  0.06006765  0.36243557     0.80000
N524        N  0.37844165  0.07906671  0.37928652    -0.78300
C525        C  0.39375803  0.06556623  0.41261989     0.82500
N526        N  0.38045870  0.03264078  0.42723110    -0.78200
C527        C  0.35286707  0.01255600  0.40929970     0.82600
N528        N  0.33595705  0.02745816  0.37802283    -0.79900
C529        C  0.87075533  0.28344580  0.35500331     0.80000
N530        N  0.85234489  0.30087194  0.38485972    -0.78300
C531        C  0.86672551  0.33380075  0.39972251     0.82500
N532        N  0.89934977  0.34812141  0.38525914    -0.78200
C533        C  0.91801949  0.33081214  0.35633242     0.82600
N534        N  0.90305891  0.29893079  0.34085654    -0.79900
C535        C  0.12431610  0.28765062  0.35303693     0.80000
N536        N  0.09259193  0.30436335  0.33906644    -0.78300
C537        C  0.07769889  0.33572899  0.35569101     0.82500
N538        N  0.09677900  0.35220895  0.38490870    -0.78200
C539        C  0.12939114  0.33693517  0.39886311     0.82600
N540        N  0.14300881  0.30387947  0.38335864    -0.79900
C541        C  0.35718245  0.28621547  0.87839882     0.80000
N542        N  0.37301242  0.27144610  0.91036468    -0.78300
C543        C  0.40461450  0.28691537  0.92605032     0.82500
N544        N  0.42146830  0.31651658  0.90823699    -0.78200
C545        C  0.40664649  0.33172024  0.87596887     0.82600
N546        N  0.37395827  0.31673161  0.86100159    -0.79900
C547        C  0.36007545  0.28460977  0.13392458     0.80000
N548        N  0.37672996  0.27009815  0.10223548    -0.78300
C549        C  0.40715208  0.28722346  0.08603237     0.82500
N550        N  0.42245911  0.31779993  0.10345975    -0.78200
C551        C  0.40740062  0.33248669  0.13579334     0.82600
N552        N  0.37541457  0.31620062  0.15105953    -0.79900
C553        C  0.14460984  0.29955126  0.13923436     0.80000
N554        N  0.15574213  0.33346032  0.12516995    -0.78300
C555        C  0.13765676  0.34919465  0.09488476     0.82500
N556        N  0.10995921  0.32934969  0.07697233    -0.78200
C557        C  0.09874638  0.29498997  0.08980225     0.82600
N558        N  0.11552809  0.28020325  0.12178106    -0.79900
C559        C  0.14210896  0.56180072  0.13923607     0.80000
N560        N  0.15172549  0.52705961  0.12593457    -0.78300
C561        C  0.13126672  0.51040422  0.09774963     0.82500
N562        N  0.10230475  0.52979633  0.08143964    -0.78200
C563        C  0.09266156  0.56497679  0.09335796     0.82600
N564        N  0.11230890  0.58114053  0.12291017    -0.79900
C565        C  0.36799408  0.07048329  0.14802072     0.80000
N566        N  0.34810598  0.05314435  0.11912558    -0.78300
C567        C  0.36190843  0.02030964  0.10339081     0.82500
N568        N  0.39582480  0.00651726  0.11538186    -0.78200
C569        C  0.41651044  0.02466205  0.14234558     0.82600
N570        N  0.40168527  0.05575081  0.15955776    -0.79900
C571        C  0.62875961  0.06868395  0.14382177     0.80000
N572        N  0.64897660  0.05065457  0.11540828    -0.78300
C573        C  0.63384008  0.01922361  0.09796560     0.82500
N574        N  0.59869564  0.00737822  0.10816887    -0.78200
C575        C  0.57837649  0.02563710  0.13533750     0.82600
N576        N  0.59414869  0.05537641  0.15391636    -0.79900
C577        C  0.37123703  0.07365732  0.85927238     0.80000
N578        N  0.35135578  0.05653209  0.88819315    -0.78300
C579        C  0.36471764  0.02337845  0.90344431     0.82500
N580        N  0.39798838  0.00881747  0.89079865    -0.78200
C581        C  0.41848876  0.02624478  0.86347248     0.82600
N582        N  0.40424978  0.05794691  0.84681554    -0.79900
C583        C  0.63185814  0.05930764  0.84897090     0.80000
N584        N  0.65197818  0.04154955  0.87751106    -0.78300
C585        C  0.63529618  0.01257961  0.89755799     0.82500
N586        N  0.59937621  0.00172318  0.88843093    -0.78200
C587        C  0.57972932  0.01906885  0.86003515     0.82600
N588        N  0.59641891  0.04744260  0.84049463    -0.79900
C589        C  0.36802884  0.79112626  0.14682735     0.80000
N590        N  0.40017085  0.80627704  0.16141769    -0.78300
C591        C  0.41676223  0.83681524  0.14521974     0.82500
N592        N  0.39909355  0.85410316  0.11557877    -0.78200
C593        C  0.36627260  0.84023275  0.10083114     0.82600
N594        N  0.35085964  0.80793839  0.11596804    -0.79900
C595        C  0.63086766  0.79614798  0.15765988     0.80000
N596        N  0.64958402  0.81089406  0.12658718    -0.78300
C597        C  0.63155367  0.83716952  0.10395596     0.82500
N598        N  0.59571407  0.84824548  0.11297940    -0.78200
C599        C  0.57774404  0.83465380  0.14426522     0.82600
N600        N  0.59572813  0.80895202  0.16651343    -0.79900
C601        C  0.85312641  0.29592739  0.14166660     0.80000
N602        N  0.84156043  0.32929283  0.12640799    -0.78300
C603        C  0.85978817  0.34435606  0.09590189     0.82500
N604        N  0.88830308  0.32457459  0.07935868    -0.78200
C605        C  0.89991645  0.29075130  0.09321124     0.82600
N606        N  0.88272014  0.27636964  0.12511186    -0.79900
C607        C  0.84304903  0.55701073  0.12920937     0.80000
N608        N  0.87274819  0.57615944  0.11280655    -0.78300
C609        C  0.89301551  0.55949036  0.08387908     0.82500
N610        N  0.88347176  0.52409597  0.07210873    -0.78200
C611        C  0.85416615  0.50506062  0.08842171     0.82600
N612        N  0.83376306  0.52218708  0.11627392    -0.79900
C613        C  0.85633918  0.06945536  0.36968849     0.80000
N614        N  0.87300118  0.03980518  0.35020126    -0.78300
C615        C  0.90532515  0.02313095  0.36461020     0.82500
N616        N  0.91947505  0.03551322  0.39822242    -0.78200
C617        C  0.90271796  0.06387277  0.41792741     0.82600
N618        N  0.87190334  0.08151980  0.40288857    -0.79900
C619        C  0.86513147  0.08334838  0.62953887     0.80000
N620        N  0.88144963  0.05428401  0.64999071    -0.78300
C621        C  0.91112351  0.03416023  0.63439628     0.82500
N622        N  0.92394715  0.04359656  0.59925063    -0.78200
C623        C  0.90781454  0.07212395  0.57904456     0.82600
N624        N  0.87889949  0.09207064  0.59470152    -0.79900
C625        C  0.13928783  0.77991795  0.37597716     0.80000
N626        N  0.12271447  0.81046484  0.35825833    -0.78300
C627        C  0.08960818  0.82546623  0.37245525     0.82500
N628        N  0.07431355  0.81054062  0.40460095    -0.78200
C629        C  0.09105637  0.78103899  0.42290078     0.82600
N630        N  0.12289771  0.76529639  0.40768253    -0.79900
C631        C  0.13681345  0.78281661  0.62982046     0.80000
N632        N  0.12187087  0.81483505  0.64654342    -0.78300
C633        C  0.08947434  0.83098505  0.63180203     0.82500
N634        N  0.07365302  0.81581975  0.59991088    -0.78200
C635        C  0.08868753  0.78470701  0.58282400     0.82600
N636        N  0.11937879  0.76771120  0.59891994    -0.79900
C637        C  0.84494285  0.30041902  0.86557487     0.80000
N638        N  0.87397887  0.28041710  0.88263745    -0.78300
C639        C  0.89404624  0.29659492  0.91206769     0.82500
N640        N  0.88429429  0.33172833  0.92427476    -0.78200
C641        C  0.85561173  0.35139498  0.90759664     0.82600
N642        N  0.83610861  0.33537685  0.87853603    -0.79900
C643        C  0.85749791  0.55725027  0.85345518     0.80000
N644        N  0.84465474  0.52508488  0.87005175    -0.78300
C645        C  0.86186887  0.51090396  0.90160123     0.82500
N646        N  0.89052353  0.53052692  0.91787224    -0.78200
C647        C  0.90322469  0.56334494  0.90278151     0.82600
N648        N  0.88703301  0.57678798  0.86992097    -0.79900
C649        C  0.86968773  0.77246476  0.36963906     0.80000
N650        N  0.88352607  0.76646636  0.40513626    -0.78300
C651        C  0.91036543  0.78959697  0.42007807     0.82500
N652        N  0.92414303  0.81823733  0.39874384    -0.78200
C653        C  0.91135066  0.82472687  0.36300574     0.82600
N654        N  0.88400638  0.80150200  0.34789279    -0.79900
C655        C  0.86140321  0.78679072  0.62862951     0.80000
N656        N  0.87779720  0.77512976  0.59566222    -0.78300
C657        C  0.90813494  0.79370999  0.58101101     0.82500
N658        N  0.92327176  0.82302029  0.60057343    -0.78200
C659        C  0.90814980  0.83500968  0.63391267     0.82600
N660        N  0.87653695  0.81714248  0.64807837    -0.79900
C661        C  0.37093953  0.79181063  0.85373944     0.80000
N662        N  0.35366049  0.80978982  0.88387240    -0.78300
C663        C  0.37011800  0.84148781  0.89932008     0.82500
N664        N  0.40422668  0.85343566  0.88575053    -0.78200
C665        C  0.42195422  0.83485162  0.85681733     0.82600
N666        N  0.40423756  0.80515755  0.84018041    -0.79900
C667        C  0.63233634  0.78426628  0.85437948     0.80000
N668        N  0.59961096  0.79979732  0.84125678    -0.78300
C669        C  0.58326219  0.82975203  0.85913873     0.82500
N670        N  0.60132593  0.84567116  0.88920214    -0.78200
C671        C  0.63482454  0.83183857  0.90231529     0.82600
N672        N  0.65043492  0.80042363  0.88518151    -0.79900
O673        O  0.25013442  0.70613747  0.68310706    -0.88500
C674        C  0.26080619  0.76018357  0.78349159     0.87500
Mg675      Mg  0.20266011  0.67249734  0.66863040     1.58100
O676        O  0.31734870  0.67983102  0.77696491    -0.88300
O677        O  0.31172330  0.69557780  0.68965958    -0.75600
C678        C  0.16988016  0.57727445  0.83048683     0.92600
O679        O  0.18671631  0.74281283  0.73612670    -0.75400
O680        O  0.15159990  0.58764429  0.80082162    -0.82900
Mg681      Mg  0.24058300  0.76199431  0.70446921     1.58000
C682        C  0.33135389  0.59949100  0.85422898     0.92500
O683        O  0.29397424  0.78103111  0.66930040    -0.81200
H684        H  0.35688735  0.65077877  0.74805713    -0.06500
C685        C  0.21840454  0.66836800  0.83110868     0.87400
O686        O  0.23524398  0.61926384  0.68776686    -0.75700
O687        O  0.27406581  0.74821535  0.75289312    -0.88400
O688        O  0.33312678  0.63574210  0.85218806    -0.81300
C689        C  0.35325084  0.75993703  0.83309479     0.92600
C690        C  0.33026896  0.78357729  0.67210131     0.92400
Mg691      Mg  0.25901889  0.59937293  0.79751522     1.58000
O692        O  0.20617773  0.57997110  0.83289329    -0.81200
O693        O  0.31240720  0.61864228  0.76544091    -0.75400
O694        O  0.35012523  0.76235168  0.79675751    -0.81300
O695        O  0.19865592  0.77984139  0.65791085    -0.83000
O696        O  0.14953450  0.59753029  0.70458277    -0.81300
C697        C  0.33027688  0.64991139  0.76351269     0.86900
O698        O  0.22510160  0.61340931  0.74956183    -0.88400
O699        O  0.24906911  0.65505340  0.81944286    -0.88500
O700        O  0.18743067  0.66579547  0.81227884    -0.75600
Mg701      Mg  0.33053038  0.72746631  0.74358181     1.58000
O702        O  0.34248198  0.73070121  0.85141686    -0.83000
H703        H  0.28062194  0.67748024  0.64444415    -0.06700
O704        O  0.18113689  0.68150869  0.72483635    -0.88200
H705        H  0.14188435  0.71116611  0.75357183    -0.06500
H706        H  0.25414064  0.57491482  0.71934740    -0.06700
C707        C  0.16854170  0.71167139  0.73817733     0.86900
C708        C  0.28068192  0.69304755  0.67103609     0.87400
C709        C  0.23823636  0.60118231  0.71906021     0.87500
H710        H  0.21831069  0.68420180  0.85754398    -0.06700
O711        O  0.26385523  0.74194814  0.81472573    -0.75700
Mg712      Mg  0.16846503  0.63346556  0.75843650     1.58000
H713        H  0.24474779  0.78636193  0.78334199    -0.06700
C714        C  0.16939741  0.76176236  0.64644988     0.92500
O715        O  0.15711092  0.62996905  0.65032369    -0.82900
C716        C  0.14692045  0.60012622  0.66809870     0.92500
O717        O  0.34812246  0.77328872  0.70199530    -0.82900
Mg718      Mg  0.29672782  0.68863242  0.83349449     1.58200
O719        O  0.16715432  0.72555125  0.64889542    -0.81200
O720        O  0.30192044  0.58131106  0.84332981    -0.82900
O721        O  0.82066683  0.68057592  0.71949537    -0.88500
C722        C  0.72027920  0.69157435  0.66666584     0.87500
Mg723      Mg  0.83516326  0.63192251  0.75142425     1.58100
O724        O  0.72655735  0.74389059  0.75020191    -0.88300
O725        O  0.81372742  0.74129175  0.73273412    -0.75600
C726        C  0.67554269  0.59133815  0.84850549     0.92600
O727        O  0.76868068  0.61821331  0.68004557    -0.75400
O728        O  0.70473774  0.57416215  0.83540180    -0.82900
Mg729      Mg  0.79939293  0.67308767  0.66291260     1.58000
C730        C  0.64905005  0.75256125  0.83221871     0.92500
O731        O  0.83320532  0.72781851  0.64519351    -0.81200
H732        H  0.75514136  0.78183988  0.78139684    -0.06500
C733        C  0.67281118  0.64438596  0.75815626     0.87400
O734        O  0.81587481  0.66162499  0.80643472    -0.75700
O735        O  0.75069705  0.70501421  0.67862390    -0.88400
O736        O  0.65133116  0.75599787  0.79586872    -0.81300
C737        C  0.66874149  0.78196955  0.67164899     0.92600
C738        C  0.82965435  0.76401234  0.64414123     0.92400
Mg739      Mg  0.70657809  0.68168896  0.82916866     1.58000
O740        O  0.67248526  0.62755483  0.84764091    -0.81200
O741        O  0.73772676  0.73610055  0.81162248    -0.75400
O742        O  0.70501601  0.77994667  0.66837017    -0.81300
O743        O  0.84652715  0.63259214  0.64333505    -0.83000
O744        O  0.79954859  0.57470081  0.82361084    -0.81300
C745        C  0.73984749  0.75529959  0.78095330     0.86900
O746        O  0.75463479  0.64942784  0.81309282    -0.88400
O747        O  0.68483591  0.67414914  0.77269797    -0.88500
O748        O  0.69175723  0.61357222  0.75862868    -0.75600
Mg749      Mg  0.75903865  0.76028902  0.70220987     1.58000
O750        O  0.65143248  0.77008304  0.70121752    -0.83000
H751        H  0.85954697  0.71002643  0.74874618    -0.06700
O752        O  0.77916232  0.61051641  0.74162032    -0.88200
H753        H  0.75147695  0.57221758  0.71002821    -0.06500
H754        H  0.78471732  0.67740271  0.85249418    -0.06700
C755        C  0.76640993  0.59895788  0.71068637     0.86900
C756        C  0.83269971  0.71049970  0.73364684     0.87400
C757        C  0.78495228  0.66275549  0.82537801     0.87500
H758        H  0.64603241  0.64509423  0.74294315    -0.06700
O759        O  0.68942072  0.69300785  0.68576104    -0.75700
Mg760      Mg  0.74603286  0.59429338  0.78941255     1.58000
H761        H  0.72031954  0.67671477  0.63966505    -0.06700
C762        C  0.85794430  0.60282463  0.66058843     0.92500
O763        O  0.85368060  0.58475938  0.79166712    -0.82900
C764        C  0.83586259  0.57286263  0.82095818     0.92500
O765        O  0.79977693  0.78077476  0.65615646    -0.82900
Mg766      Mg  0.67041669  0.72287977  0.74102381     1.58200
O767        O  0.85519164  0.59918216  0.69686723    -0.81200
O768        O  0.66028553  0.72268409  0.84936074    -0.82900
O769        O  0.75752026  0.74262455  0.28126694    -0.88500
C770        C  0.76765128  0.63926040  0.32822194     0.87500
Mg771      Mg  0.70766964  0.76057658  0.25306663     1.58100
O772        O  0.81704801  0.65010073  0.24326795    -0.88300
O773        O  0.81820814  0.73493689  0.26714152    -0.75600
C774        C  0.65813879  0.61098222  0.14988175     0.92600
O775        O  0.69458153  0.69093595  0.31990878    -0.75400
O776        O  0.64557082  0.64342646  0.15950538    -0.82900
Mg777      Mg  0.75133664  0.71916963  0.33633506     1.58000
C778        C  0.81700719  0.57493250  0.15677760     0.92500
O779        O  0.80764836  0.75147610  0.35215916    -0.81200
H780        H  0.85528092  0.67782240  0.21155051    -0.06500
C781        C  0.71463030  0.60086408  0.23777432     0.87400
O782        O  0.73617552  0.74461409  0.19590456    -0.75700
O783        O  0.78029643  0.67007713  0.31690095    -0.88400
O784        O  0.82688486  0.57879705  0.19169953    -0.81300
C785        C  0.85650166  0.58639803  0.31577625     0.92600
C786        C  0.84328507  0.74416480  0.35394048     0.92400
Mg787      Mg  0.75033100  0.63396470  0.16760329     1.58000
O788        O  0.69337974  0.60244377  0.15275693    -0.81200
O789        O  0.80801807  0.66187536  0.18223859    -0.75400
O790        O  0.85245835  0.62125265  0.32485368    -0.81300
O791        O  0.71481900  0.76692858  0.35940250    -0.83000
O792        O  0.65182751  0.73457726  0.17677948    -0.81300
C793        C  0.82810019  0.66355949  0.21252126     0.86900
O794        O  0.72311198  0.68419883  0.18655200    -0.88400
O795        O  0.74490487  0.61176959  0.22318648    -0.88500
O796        O  0.68425502  0.62079534  0.23695675    -0.75600
Mg797      Mg  0.83529439  0.67777739  0.29391400     1.58000
O798        O  0.84739517  0.57400845  0.28291539    -0.83000
H799        H  0.78777845  0.78211530  0.25391506    -0.06700
O800        O  0.68562116  0.70534946  0.25931183    -0.88200
H801        H  0.64730222  0.67655904  0.28991658    -0.06500
H802        H  0.75195560  0.71523021  0.14860341    -0.06700
C803        C  0.67448506  0.69085011  0.28958997     0.86900
C804        C  0.78769539  0.75457436  0.26738449     0.87400
C805        C  0.73729214  0.71453250  0.17570666     0.87500
H806        H  0.71420852  0.57392301  0.25241447    -0.06700
O807        O  0.76931791  0.60924667  0.30797084    -0.75700
Mg808      Mg  0.66772658  0.67788079  0.20884002     1.58000
H809        H  0.75398134  0.63800627  0.35582209    -0.06700
C810        C  0.68297976  0.77765840  0.34569772     0.92500
O811        O  0.65867647  0.78261817  0.21748345    -0.82900
C812        C  0.64891531  0.76980005  0.18494577     0.92500
O813        O  0.85686519  0.71230569  0.34359460    -0.82900
Mg814      Mg  0.79633810  0.59440256  0.24970447     1.58200
O815        O  0.67580837  0.77605805  0.30994060    -0.81200
O816        O  0.78402521  0.58435129  0.14514810    -0.82900
O817        O  0.72259231  0.17252369  0.81679768    -0.88500
C818        C  0.67022793  0.16334578  0.71552614     0.87500
Mg819      Mg  0.75025929  0.22341561  0.83327707     1.58100
O820        O  0.75456620  0.11286972  0.72246223    -0.88300
O821        O  0.73547153  0.11189434  0.80828380    -0.75600
C822        C  0.84803855  0.27010043  0.67819526     0.92600
O823        O  0.68054936  0.23471503  0.76736413    -0.75400
O824        O  0.83863153  0.28378069  0.71048071    -0.82900
Mg825      Mg  0.66626169  0.17794751  0.79699762     1.58000
C826        C  0.83817620  0.11055127  0.64657869     0.92500
O827        O  0.65225055  0.12115890  0.83015411    -0.81200
H828        H  0.78681187  0.07549401  0.75084121    -0.06500
C829        C  0.75984043  0.21474838  0.67222856     0.87400
O830        O  0.80738906  0.19580986  0.81601176    -0.75700
O831        O  0.68241785  0.14978751  0.74588564    -0.88400
O832        O  0.80301613  0.10202784  0.65037453    -0.81300
C833        C  0.67900218  0.07506843  0.66016026     0.92600
C834        C  0.64927265  0.08595378  0.82180256     0.92400
Mg835      Mg  0.83037961  0.17885537  0.70432951     1.58000
O836        O  0.84524489  0.23470848  0.67087420    -0.81200
O837        O  0.81553291  0.12243142  0.73398300    -0.75400
O838        O  0.67169152  0.07815414  0.69583220    -0.81300
O839        O  0.64646819  0.21312619  0.84739128    -0.83000
O840        O  0.82483228  0.27943126  0.80375329    -0.81300
C841        C  0.78551272  0.10228062  0.73595885     0.86900
O842        O  0.81387576  0.20762803  0.75461099    -0.88400
O843        O  0.77427540  0.18467425  0.68367852    -0.88500
O844        O  0.76120694  0.24533484  0.69161803    -0.75600
Mg845      Mg  0.70549409  0.09488988  0.75198722     1.58000
O846        O  0.71104156  0.08481562  0.64645734    -0.83000
H847        H  0.75266839  0.14216607  0.85451463    -0.06700
O848        O  0.74172062  0.24451952  0.77766212    -0.88200
H849        H  0.70886090  0.28158236  0.74954576    -0.06500
H850        H  0.85384573  0.18065088  0.78501091    -0.06700
C851        C  0.71051674  0.25489437  0.76457411     0.86900
C852        C  0.73720847  0.14238320  0.82782878     0.87400
C853        C  0.82636717  0.19452424  0.78502068     0.87500
H854        H  0.74471392  0.21476900  0.64535014    -0.06700
O855        O  0.68928925  0.16209515  0.68454476    -0.75700
Mg856      Mg  0.79094313  0.26250615  0.74783243     1.58000
H857        H  0.64291307  0.17753750  0.71555935    -0.06700
C858        C  0.65864496  0.24608650  0.85567553     0.92500
O859        O  0.78523513  0.27313563  0.85300402    -0.82900
C860        C  0.81736406  0.28268321  0.83936324     0.92500
O861        O  0.65791804  0.07332871  0.78889355    -0.82900
Mg862      Mg  0.74631565  0.13416983  0.66696812     1.58200
O863        O  0.69346565  0.25526010  0.85053760    -0.81200
O864        O  0.85068309  0.14329035  0.65504274    -0.82900
C865        C  0.14297021  0.30340626  0.85920082     0.80000
N866        N  0.15410950  0.33730813  0.87343105    -0.78300
C867        C  0.13509706  0.35376657  0.90278405     0.82500
N868        N  0.10578628  0.33502140  0.91912642    -0.78200
C869        C  0.09452570  0.30063833  0.90632012     0.82600
N870        N  0.11295167  0.28469158  0.87575683    -0.79900
C871        C  0.14892501  0.56162606  0.86335825     0.80000
N872        N  0.16228097  0.52939847  0.87937543    -0.78300
C873        C  0.14512560  0.51403479  0.91024518     0.82500
N874        N  0.11640192  0.53337190  0.92735234    -0.78200
C875        C  0.10283563  0.56623015  0.91257103     0.82600
N876        N  0.11852038  0.58009164  0.87963914    -0.79900
O877        O  0.27785435  0.11504585  0.75605986    -0.88500
C878        C  0.33100628  0.21522413  0.76781351     0.87500
Mg879      Mg  0.24530403  0.09949224  0.70791238     1.58100
O880        O  0.24793201  0.20843173  0.82094408    -0.88300
O881        O  0.26561914  0.12153216  0.81738309    -0.75600
C882        C  0.14926479  0.25815753  0.66700124     0.92600
O883        O  0.31560989  0.16741279  0.69285750    -0.75400
O884        O  0.16111882  0.22865517  0.64965801    -0.82900
Mg885      Mg  0.33390984  0.13702587  0.74766196     1.58000
C886        C  0.16589767  0.28629347  0.82821000     0.92500
O887        O  0.35323622  0.10316382  0.80135144    -0.81200
H888        H  0.21691252  0.18012852  0.85924813    -0.06500
C889        C  0.23991951  0.26062874  0.71972446     0.87400
O890        O  0.19077330  0.11870372  0.73828941    -0.75700
O891        O  0.31850336  0.18492581  0.78058020    -0.88400
O892        O  0.20208272  0.28389228  0.83246970    -0.81300
C893        C  0.32579787  0.26509977  0.86022901     0.92600
C894        C  0.35511675  0.10584793  0.83772820     0.92400
Mg895      Mg  0.16928093  0.22786452  0.75785940     1.58000
O896        O  0.15101017  0.26140011  0.70337006    -0.81200
O897        O  0.18674523  0.19719053  0.81296137    -0.75400
O898        O  0.32905231  0.22905527  0.85736425    -0.81300
O899        O  0.35319712  0.09073053  0.70704659    -0.83000
O900        O  0.17232245  0.13390923  0.65054887    -0.81300
C901        C  0.21731385  0.19522121  0.83242590     0.86900
O902        O  0.18474264  0.17961706  0.72575054    -0.88400
O903        O  0.22556663  0.24946131  0.75008877    -0.88500
O904        O  0.23832015  0.24153570  0.68884479    -0.75600
Mg905      Mg  0.29602133  0.17567645  0.83652953     1.58000
O906        O  0.29671760  0.28289351  0.84770651    -0.83000
H907        H  0.24943419  0.07608522  0.78594689    -0.06700
O908        O  0.25458984  0.15480896  0.68524758    -0.88200
H909        H  0.28501949  0.18292814  0.64633776    -0.06500
H910        H  0.14521836  0.15038123  0.75418886    -0.06700
C911        C  0.28498997  0.16825898  0.67340293     0.86900
C912        C  0.26435135  0.10283860  0.78633388     0.87400
C913        C  0.17219263  0.14970797  0.73936101     0.87500
H914        H  0.25570190  0.28688736  0.71984426    -0.06700
O915        O  0.31228658  0.24612411  0.76965144    -0.75700
Mg916      Mg  0.20693889  0.18756728  0.66967483     1.58000
H917        H  0.35810787  0.21507418  0.75320600    -0.06700
C918        C  0.33565447  0.07820384  0.67784061     0.92500
O919        O  0.20409896  0.07997085  0.66130956    -0.82900
C920        C  0.17480253  0.09766315  0.64910256     0.92500
O921        O  0.34286659  0.13490698  0.85563218    -0.82900
Mg922      Mg  0.25700690  0.26441594  0.79954393     1.58200
O923        O  0.29934815  0.07981842  0.67470426    -0.81200
O924        O  0.14928425  0.27456824  0.79809822    -0.82900
O925        O  0.24577969  0.65527470  0.18075382    -0.88500
C926        C  0.23663955  0.59966110  0.28007928     0.87500
Mg927      Mg  0.29358762  0.68846953  0.16674418     1.58100
O928        O  0.18135574  0.68119385  0.27722578    -0.88300
O929        O  0.18464489  0.66720389  0.18905053    -0.75600
C930        C  0.33180486  0.78275776  0.32889295     0.96600
O931        O  0.30993275  0.61683569  0.23208928    -0.75400
O932        O  0.34885620  0.77110844  0.29896931    -0.82900
Mg933      Mg  0.25521681  0.59897968  0.20101926     1.58000
C934        C  0.17161227  0.75913444  0.35861443     0.92500
O935        O  0.20109575  0.58021256  0.16673573    -0.81200
H936        H  0.14128851  0.71173484  0.25071716    -0.06500
C937        C  0.28185417  0.69023815  0.33000222     0.87400
O938        O  0.26204647  0.74187590  0.18764685    -0.75700
O939        O  0.22299319  0.61268718  0.25013933    -0.88400
O940        O  0.16898743  0.72308627  0.35500279    -0.81300
C941        C  0.14602843  0.59991318  0.33151330     0.92600
C942        C  0.16487679  0.57810681  0.17053590     0.92400
Mg943      Mg  0.24142954  0.76048109  0.29896946     1.58000
O944        O  0.29563632  0.78005578  0.33283847    -0.81200
O945        O  0.18667566  0.74267228  0.26812378    -0.75400
O946        O  0.14823355  0.59840167  0.29508322    -0.81300
O947        O  0.29595796  0.58149028  0.15352900    -0.83000
O948        O  0.34865223  0.76079652  0.20377076    -0.81300
C949        C  0.16838352  0.71170999  0.26537092     0.86900
O950        O  0.27361035  0.74698128  0.24940502    -0.88400
O951        O  0.25117212  0.70400840  0.31908059    -0.88500
O952        O  0.31239585  0.69275832  0.31061213    -0.75600
Mg953      Mg  0.16672813  0.63444668  0.24262910     1.58000
O954        O  0.15711506  0.62874941  0.35039499    -0.83000
H955        H  0.21499517  0.68524464  0.14338624    -0.06700
O956        O  0.31549662  0.67828900  0.22265213    -0.88200
H957        H  0.35532487  0.64776228  0.24955098    -0.06500
H958        H  0.24411632  0.78594847  0.22029336    -0.06700
C959        C  0.32829872  0.64778630  0.23477031     0.86900
C960        C  0.21523565  0.66923521  0.16966851     0.87400
C961        C  0.25984263  0.75959005  0.21931185     0.87500
H962        H  0.28230968  0.67407219  0.35618408    -0.06700
O963        O  0.23471600  0.61717278  0.31183926    -0.75700
Mg964      Mg  0.33005785  0.72543981  0.25689536     1.58000
H965        H  0.25210349  0.57315909  0.27884832    -0.06700
C966        C  0.32559563  0.59932498  0.14278808     0.92500
O967        O  0.33964411  0.72998366  0.14872529    -0.82900
C968        C  0.35100506  0.75886669  0.16732964     0.92500
O969        O  0.14788936  0.58944704  0.20054952    -0.82900
Mg970      Mg  0.20336833  0.67045392  0.33300236     1.58200
O971        O  0.32836964  0.63542367  0.14591770    -0.81200
O972        O  0.20074716  0.77737570  0.34710253    -0.82900
O973        O  0.72082377  0.11097812  0.24820372    -0.88500
C974        C  0.66741949  0.21091413  0.23783477     0.87500
Mg975      Mg  0.75309654  0.09494908  0.29655673     1.58100
O976        O  0.74886402  0.20439789  0.18256410    -0.88300
O977        O  0.73204194  0.11789469  0.18663668    -0.75600
C978        C  0.85340382  0.25164883  0.33374983     0.92600
O979        O  0.68380288  0.16364237  0.31130051    -0.75400
O980        O  0.84166483  0.22251053  0.35169073    -0.82900
Mg981      Mg  0.66486003  0.13264807  0.25664113     1.58000
C982        C  0.83095760  0.27996603  0.17362152     0.92500
O983        O  0.64650186  0.09793325  0.20236114    -0.81200
H984        H  0.77841538  0.17532564  0.14349701    -0.06500
C985        C  0.76108903  0.25604388  0.28406778     0.87400
O986        O  0.80774126  0.11241474  0.26540417    -0.75700
O987        O  0.67940180  0.18073450  0.22403002    -0.88400
O988        O  0.79457297  0.27887352  0.17080613    -0.81300
C989        C  0.66928707  0.26254560  0.14686765     0.92600
C990        C  0.64435304  0.10090270  0.16594607     0.92400
Mg991      Mg  0.82952859  0.22124127  0.24378483     1.58000
O992        O  0.85034387  0.25461673  0.29745400    -0.81200
O993        O  0.80986430  0.19095198  0.18937538    -0.75400
O994        O  0.66656212  0.22630316  0.14855392    -0.81300
O995        O  0.64574798  0.08664351  0.29754510    -0.83000
O996        O  0.82771760  0.12786130  0.35171899    -0.81300
C997        C  0.77894014  0.19032276  0.17041480     0.86900
O998        O  0.81449786  0.17346291  0.27667981    -0.88400
O999        O  0.77380461  0.24399006  0.25328219    -0.88500
O1000       O  0.76342740  0.23726971  0.31503185    -0.75600
Mg1001     Mg  0.70079636  0.17210899  0.16773698     1.58000
O1002       O  0.69870575  0.27996872  0.15905546    -0.83000
H1003       H  0.74967453  0.07262071  0.21762111    -0.06700
O1004       O  0.74498027  0.15083299  0.31883770    -0.88200
H1005       H  0.71484151  0.18041286  0.35711855    -0.06500
H1006       H  0.85340547  0.14304866  0.24830129    -0.06700
C1007       C  0.71467054  0.16498467  0.33044259     0.86900
C1008       C  0.73423676  0.09916379  0.21763381     0.87400
C1009       C  0.82659503  0.14311076  0.26343475     0.87500
H1010       H  0.74612370  0.28285261  0.28432042    -0.06700
O1011       O  0.68632397  0.24162915  0.23643922    -0.75700
Mg1012     Mg  0.79398686  0.18247168  0.33327977     1.58000
H1013       H  0.64069077  0.21073888  0.25311408    -0.06700
C1014       C  0.66277102  0.07536577  0.32757727     0.92500
O1015       O  0.79410983  0.07484336  0.34285727    -0.82900
C1016       C  0.82426275  0.09174102  0.35379627     0.92500
O1017       O  0.65465258  0.13090241  0.14856331    -0.82900
Mg1018     Mg  0.74062193  0.26002239  0.20523786     1.58200
O1019       O  0.69903450  0.07693938  0.33109842    -0.81200
O1020       O  0.84852081  0.26735347  0.20281654    -0.82900
C1021       C  0.13592264  0.07329537  0.37227198     0.80000
N1022       N  0.11918954  0.04248842  0.35524757    -0.78300
C1023       C  0.08833691  0.02577088  0.37212807     0.82500
N1024       N  0.07560610  0.03923010  0.40603559    -0.78200
C1025       C  0.09261287  0.06904423  0.42345100     0.82600
N1026       N  0.12205314  0.08645045  0.40580562    -0.79900
C1027       C  0.14235240  0.07610310  0.63298521     0.80000
N1028       N  0.12668144  0.08861572  0.59993854    -0.78300
C1029       C  0.09530254  0.07180303  0.58508093     0.82500
N1030       N  0.07804587  0.04407884  0.60509613    -0.78200
C1031       C  0.09260891  0.03096887  0.63824801     0.82600
N1032       N  0.12551861  0.04659803  0.65226448    -0.79900
O1033       O  0.31440413  0.18162069  0.22697719    -0.88500
C1034       C  0.21663083  0.19293473  0.16978575     0.87500
Mg1035     Mg  0.32807913  0.13319505  0.25945086     1.58100
O1036       O  0.21989251  0.24594192  0.25276144    -0.88300
O1037       O  0.30745991  0.24249253  0.23955785    -0.75600
C1038       C  0.16690927  0.09482122  0.35385972     0.92600
O1039       O  0.26296254  0.11949060  0.18671973    -0.75400
O1040       O  0.19625465  0.07731370  0.34158819    -0.82900
Mg1041     Mg  0.29501873  0.17363447  0.16979058     1.58000
C1042       C  0.14021726  0.25515834  0.33170076     0.92500
O1043       O  0.33005809  0.22725773  0.15218643    -0.81200
H1044       H  0.24683616  0.28452651  0.28460798    -0.06500
C1045       C  0.16579648  0.14576329  0.26091101     0.87400
O1046       O  0.30770261  0.16355922  0.31381679    -0.75700
O1047       O  0.24649455  0.20631646  0.18310957    -0.88400
O1048       O  0.14364715  0.25816893  0.29542258    -0.81300
C1049       C  0.16583057  0.28340245  0.17178605     0.92600
C1050       C  0.32764311  0.26347597  0.15042613     0.92400
Mg1051     Mg  0.19751935  0.18458675  0.33195127     1.58000
O1052       O  0.16355000  0.13090731  0.35134286    -0.81200
O1053       O  0.22880471  0.23888654  0.31458985    -0.75400
O1054       O  0.20223916  0.28159289  0.16989661    -0.81300
O1055       O  0.34199725  0.13267119  0.15211075    -0.83000
O1056       O  0.29130854  0.07772760  0.33153469    -0.81300
C1057       C  0.23185295  0.25781772  0.28385749     0.86900
O1058       O  0.24615711  0.15214840  0.31815249    -0.88400
O1059       O  0.17748695  0.17592357  0.27488765    -0.88500
O1060       O  0.18452524  0.11488236  0.26316200    -0.75600
Mg1061     Mg  0.25463422  0.26176540  0.20625439     1.58000
O1062       O  0.14738004  0.27129641  0.20059169    -0.83000
H1063       H  0.35202894  0.21084168  0.25805753    -0.06700
O1064       O  0.27224317  0.11181489  0.24851364    -0.88200
H1065       H  0.24432865  0.07397380  0.21655879    -0.06500
H1066       H  0.27496785  0.18006722  0.35854315    -0.06700
C1067       C  0.25979181  0.10040855  0.21738904     0.86900
C1068       C  0.32600953  0.21151287  0.24157080     0.87400
C1069       C  0.27608703  0.16525929  0.33153757     0.87500
H1070       H  0.13950641  0.14605579  0.24484941    -0.06700
O1071       O  0.18505286  0.19409322  0.18763198    -0.75700
Mg1072     Mg  0.23822241  0.09643283  0.29578930     1.58000
H1073       H  0.21784885  0.17816530  0.14276188    -0.06700
C1074       C  0.35206842  0.10269408  0.16971692     0.92500
O1075       O  0.34596163  0.08655079  0.30018295    -0.82900
C1076       C  0.32767531  0.07559550  0.32950843     0.92500
O1077       O  0.29813078  0.28131088  0.16186124    -0.82900
Mg1078     Mg  0.16431384  0.22441671  0.24179184     1.58200
O1079       O  0.34856442  0.09935863  0.20591631    -0.81200
O1080       O  0.15034368  0.22534859  0.34959246    -0.82900
C1081       C  0.08453579  0.07700265  0.46414536    -0.05600
C1082       C  0.06171506  0.05165166  0.48475839    -0.33100
C1083       C  0.06197982  0.05167470  0.52453972     0.36200
C1084       C  0.08538265  0.07758482  0.54445368    -0.06000
C1085       C  0.10366404  0.10636013  0.52385511    -0.33000
C1086       C  0.10310299  0.10645631  0.48403073     0.36100
H1087       H  0.04571375  0.02973668  0.47026178     0.16400
O1088       O  0.04099823  0.02474466  0.54330224    -0.60500
H1089       H  0.12039045  0.12765073  0.53849366     0.16500
O1090       O  0.12290362  0.13406193  0.46507732    -0.60600
H1091       H  0.10426499  0.15485612  0.46103045     0.43500
H1092       H  0.05625303  0.00112238  0.54176781     0.43400
C1093       C  0.14301959  0.39364416  0.91322860    -0.05600
C1094       C  0.17448600  0.41206241  0.89697629    -0.33100
C1095       C  0.17802467  0.45143059  0.89909428     0.36200
C1096       C  0.14971248  0.47302401  0.91773150    -0.06000
C1097       C  0.12137140  0.45409243  0.93847618    -0.33000
C1098       C  0.11773901  0.41484296  0.93628156     0.36100
H1099       H  0.19540430  0.39626734  0.88069353     0.16400
O1100       O  0.20850637  0.46852206  0.88174311    -0.60500
H1101       H  0.09988210  0.46980217  0.95408137     0.16500
O1102       O  0.08731522  0.39825556  0.95410960    -0.60600
H1103       H  0.09675365  0.39131879  0.97987918     0.43500
H1104       H  0.20325607  0.46709800  0.85394081     0.43400
C1105       C  0.46296565  0.84114481  0.84940769    -0.05600
C1106       C  0.48321730  0.86683134  0.87232235    -0.33100
C1107       C  0.52292947  0.86635158  0.87314476     0.36200
C1108       C  0.54307417  0.83945762  0.85105178    -0.06000
C1109       C  0.52302072  0.81777702  0.82419124    -0.33000
C1110       C  0.48336896  0.81821406  0.82333112     0.36100
H1111       H  0.46837156  0.88564468  0.89169979     0.16400
O1112       O  0.54130681  0.89034196  0.89781561    -0.60500
H1113       H  0.53780373  0.79817193  0.80552216     0.16500
O1114       O  0.46508036  0.79462936  0.79815211    -0.60600
H1115       H  0.46712970  0.76888934  0.80939254     0.43500
H1116       H  0.55092932  0.91128641  0.88161676     0.43400
C1117       C  0.91974038  0.78725177  0.46091560    -0.05600
C1118       C  0.90971316  0.75455750  0.48132597    -0.33100
C1119       C  0.90932493  0.75484266  0.52108620     0.36200
C1120       C  0.91865327  0.78829195  0.54080034    -0.06000
C1121       C  0.93351556  0.81915060  0.52050925    -0.33000
C1122       C  0.93425377  0.81885797  0.48086380     0.36100
H1123       H  0.90006623  0.72937965  0.46651148     0.16400
O1124       O  0.89760793  0.72308868  0.54022974    -0.60500
H1125       H  0.94177313  0.84494563  0.53509124     0.16500
O1126       O  0.94541744  0.85118189  0.46230970    -0.60600
H1127       H  0.97284111  0.84745620  0.45682680     0.43500
H1128       H  0.92131014  0.70889598  0.54602937     0.43400
C1129       C  0.85074655  0.39212970  0.91569988    -0.05600
C1130       C  0.87960738  0.41130179  0.93547152    -0.33100
C1131       C  0.88173546  0.45064161  0.93448881     0.36200
C1132       C  0.85460990  0.47146569  0.91328220    -0.06000
C1133       C  0.82271248  0.45265157  0.89851325    -0.33000
C1134       C  0.82061851  0.41320723  0.89948193     0.36100
H1135       H  0.90254398  0.39586412  0.94913409     0.16400
O1136       O  0.91269600  0.46773773  0.95094368    -0.60500
H1137       H  0.80054429  0.46826961  0.88379005     0.16500
O1138       O  0.78983020  0.39562254  0.88313423    -0.60600
H1139       H  0.79357942  0.39800329  0.85518648     0.43500
H1140       H  0.90457144  0.47402311  0.97728513     0.43400
C1141       C  0.07816396  0.77484978  0.54300114    -0.05600
C1142       C  0.09875697  0.74624496  0.52405576    -0.33100
C1143       C  0.09963194  0.74465861  0.48428322     0.36200
C1144       C  0.08007141  0.77233977  0.46281774    -0.06000
C1145       C  0.05384270  0.79598387  0.48170354    -0.33000
C1146       C  0.05267799  0.79735662  0.52157822     0.36100
H1147       H  0.11679638  0.72687451  0.53985217     0.16400
O1148       O  0.12232426  0.71800485  0.46702869    -0.60500
H1149       H  0.03648811  0.81587673  0.46583233     0.16500
O1150       O  0.02818188  0.82229450  0.53903957    -0.60600
H1151       H  0.03946587  0.84769186  0.53528527     0.43500
H1152       H  0.10498393  0.69680569  0.46056319     0.43400
C1153       C  0.91575399  0.07582070  0.53792920    -0.05600
C1154       C  0.93394299  0.04574400  0.51907907    -0.33100
C1155       C  0.93262799  0.04279658  0.47954144     0.36200
C1156       C  0.91327183  0.07066364  0.45804235    -0.06000
C1157       C  0.89968525  0.10328791  0.47652493    -0.33000
C1158       C  0.90062785  0.10599698  0.51624527     0.36100
H1159       H  0.94655272  0.02258028  0.53497471     0.16400
O1160       O  0.94677927  0.01048598  0.46294006    -0.60500
H1161       H  0.88611815  0.12576000  0.46039630     0.16500
O1162       O  0.88549709  0.13756343  0.53351403    -0.60600
H1163       H  0.85749602  0.13478530  0.53129293     0.43500
H1164       H  0.97380857  0.01619764  0.45724666     0.43400
C1165       C  0.84942525  0.46392037  0.08165809    -0.05600
C1166       C  0.87759562  0.44409198  0.06138071    -0.33100
C1167       C  0.87946093  0.40465587  0.06269299     0.36200
C1168       C  0.85307799  0.38431274  0.08514741    -0.06000
C1169       C  0.82205551  0.40377388  0.10107293    -0.33000
C1170       C  0.81993120  0.44322871  0.09935939     0.36100
H1171       H  0.89996492  0.45912656  0.04655935     0.16400
O1172       O  0.90916368  0.38690385  0.04456016    -0.60500
H1173       H  0.80034010  0.38864101  0.11679210     0.16500
O1174       O  0.78954569  0.46118666  0.11617170    -0.60600
H1175       H  0.79432983  0.45974108  0.14405671     0.43500
H1176       H  0.89875009  0.37876641  0.01954871     0.43400
C1177       C  0.45727569  0.84489635  0.15317747    -0.05600
C1178       C  0.47726742  0.86977519  0.12920528    -0.33100
C1179       C  0.51695996  0.86940941  0.12836372     0.36200
C1180       C  0.53720394  0.84342773  0.15127041    -0.06000
C1181       C  0.51736312  0.82283646  0.17912024    -0.33000
C1182       C  0.47777751  0.82378607  0.18056764     0.36100
H1183       H  0.46228129  0.88777822  0.10914824     0.16400
O1184       O  0.53533537  0.89286756  0.10331284    -0.60500
H1185       H  0.53224797  0.80405471  0.19850930     0.16500
O1186       O  0.45963357  0.80166687  0.20704049    -0.60600
H1187       H  0.45483432  0.81868575  0.22906977     0.43500
H1188       H  0.54687920  0.91290863  0.11945014     0.43400
C1189       C  0.45863772  0.01538477  0.85734482    -0.05600
C1190       C  0.47835328  0.03088433  0.82635759    -0.33100
C1191       C  0.51800046  0.02946561  0.82492661     0.36200
C1192       C  0.53856949  0.01225169  0.85496888    -0.06000
C1193       C  0.51858435  0.99245671  0.88321431    -0.33000
C1194       C  0.47896202  0.99368750  0.88452961     0.36100
H1195       H  0.46322074  0.04616282  0.80421704     0.16400
O1196       O  0.53626863  0.04615759  0.79470825    -0.60500
H1197       H  0.53360302  0.97821102  0.90609973     0.16500
O1198       O  0.46102588  0.97661618  0.91467888    -0.60600
H1199       H  0.45242575  0.95170795  0.90475084     0.43500
H1200       H  0.53426480  0.07384960  0.79926108     0.43400
C1201       C  0.45766685  0.01693036  0.14528438    -0.05600
C1202       C  0.47627528  0.99988004  0.11420144    -0.33100
C1203       C  0.51587811  0.00034275  0.11139099     0.36200
C1204       C  0.53758551  0.01745400  0.14056361    -0.06000
C1205       C  0.51912452  0.03096640  0.17342765    -0.33000
C1206       C  0.47946967  0.03113936  0.17581772     0.36100
H1207       H  0.46018566  0.98882179  0.09028402     0.16400
O1208       O  0.53255835  0.98830915  0.07802946    -0.60500
H1209       H  0.53535398  0.04335015  0.19658364     0.16500
O1210       O  0.46234215  0.04614385  0.20764247    -0.60600
H1211       H  0.46471810  0.07403934  0.20494903     0.43500
H1212       H  0.52550357  0.96134177  0.07503667     0.43400
C1213       C  0.13695766  0.46979647  0.08910036    -0.05600
C1214       C  0.16870201  0.45095174  0.10450124    -0.33100
C1215       C  0.17121740  0.41153298  0.10357288     0.36200
C1216       C  0.14142022  0.39018473  0.08742533    -0.06000
C1217       C  0.11200183  0.40916883  0.06807462    -0.33000
C1218       C  0.10942426  0.44857406  0.06894058     0.36100
H1219       H  0.19095355  0.46663845  0.11891721     0.16400
O1220       O  0.20195492  0.39426746  0.12038348    -0.60500
H1221       H  0.08920961  0.39353367  0.05448612     0.16500
O1222       O  0.07873659  0.46560329  0.05171414    -0.60600
H1223       H  0.05771633  0.46385113  0.07046085     0.43500
H1224       H  0.21935015  0.38784439  0.09902707     0.43400
C1225       C  0.41541904  0.27765357  0.96581887    -0.05600
C1226       C  0.44061412  0.30175253  0.98520138    -0.33100
C1227       C  0.44167895  0.30243595  0.02495987     0.36200
C1228       C  0.41726666  0.27853402  0.04594176    -0.06000
C1229       C  0.39749505  0.24981848  0.02647021    -0.33000
C1230       C  0.39668440  0.24903259  0.98663751     0.36100
H1231       H  0.45697284  0.32273907  0.96986250     0.16400
O1232       O  0.46460446  0.32847942  0.04273954    -0.60500
H1233       H  0.38016042  0.22968009  0.04194176     0.16500
O1234       O  0.37498731  0.22209681  0.96871372    -0.60600
H1235       H  0.39326454  0.20212666  0.96078259     0.43500
H1236       H  0.45169673  0.35329404  0.03935827     0.43400
C1237       C  0.95761611  0.34201842  0.34769817    -0.05600
C1238       C  0.97654818  0.36693122  0.37262111    -0.33100
C1239       C  0.01623366  0.36867221  0.37314822     0.36200
C1240       C  0.03745546  0.34560115  0.34798320    -0.06000
C1241       C  0.01819587  0.32626330  0.31867878    -0.33000
C1242       C  0.97857560  0.32430063  0.31839050     0.36100
H1243       H  0.96099023  0.38263962  0.39416448     0.16400
O1244       O  0.03370154  0.39090972  0.40010172    -0.60500
H1245       H  0.03382014  0.30993393  0.29765264     0.16500
O1246       O  0.96107805  0.30244961  0.29118857    -0.60600
H1247       H  0.95329257  0.32045249  0.27090966     0.43500
H1248       H  0.03171876  0.37665064  0.42435363     0.43400
C1249       C  0.35707620  0.89198510  0.41104745    -0.05600
C1250       C  0.32372333  0.91019354  0.39849980    -0.33100
C1251       C  0.32018107  0.94963874  0.40064095     0.36200
C1252       C  0.35013306  0.97137615  0.41603533    -0.06000
C1253       C  0.38155255  0.95275343  0.43217636    -0.33000
C1254       C  0.38558421  0.91357018  0.42931144     0.36100
H1255       H  0.30103648  0.89405952  0.38531689     0.16400
O1256       O  0.28785556  0.96669151  0.38674327    -0.60500
H1257       H  0.40503657  0.96871019  0.44410535     0.16500
O1258       O  0.41958554  0.89746088  0.44006449    -0.60600
H1259       H  0.42289136  0.90345815  0.46749420     0.43500
H1260       H  0.29012178  0.96541695  0.35854848     0.43400
C1261       C  0.41616305  0.58104946  0.03891316    -0.05600
C1262       C  0.43985530  0.55503298  0.01989160    -0.33100
C1263       C  0.44196257  0.55463682  0.98008125     0.36200
C1264       C  0.42032834  0.58089854  0.95863532    -0.06000
C1265       C  0.40143113  0.61032295  0.97798916    -0.33000
C1266       C  0.39923725  0.61060661  0.01771787     0.36100
H1267       H  0.45455974  0.53293951  0.03552839     0.16400
O1268       O  0.46335725  0.52698195  0.96268011    -0.60500
H1269       H  0.38593681  0.63184456  0.96230065     0.16500
O1270       O  0.37813617  0.63844110  0.03511896    -0.60600
H1271       H  0.39704663  0.65682083  0.04503319     0.43500
H1272       H  0.44763821  0.50377192  0.96366443     0.43400
C1273       C  0.57733671  0.27697978  0.96379858    -0.05600
C1274       C  0.59468249  0.24712511  0.98392174    -0.33100
C1275       C  0.59432991  0.24659046  0.02373295     0.36200
C1276       C  0.57728614  0.27680349  0.04387639    -0.06000
C1277       C  0.55421138  0.30247498  0.02378418    -0.33000
C1278       C  0.55396896  0.30269216  0.98398834     0.36100
H1279       H  0.61092896  0.22557205  0.96903309     0.16400
O1280       O  0.61345071  0.21818064  0.04238382    -0.60500
H1281       H  0.53913274  0.32485165  0.03860901     0.16500
O1282       O  0.53272620  0.32966315  0.96540339    -0.60600
H1283       H  0.54653491  0.35382893  0.96907260     0.43500
H1284       H  0.59343613  0.20018524  0.05059323     0.43400
C1285       C  0.35371635  0.89066321  0.58965356    -0.05600
C1286       C  0.32681058  0.91020428  0.61182419    -0.33100
C1287       C  0.32755897  0.94951342  0.61453366     0.36200
C1288       C  0.35516618  0.97023304  0.59413947    -0.06000
C1289       C  0.37877560  0.95100028  0.56811186    -0.33000
C1290       C  0.37808592  0.91154751  0.56558920     0.36100
H1291       H  0.30653895  0.89501995  0.62931841     0.16400
O1292       O  0.30197594  0.96707792  0.63833319    -0.60500
H1293       H  0.39941865  0.96626404  0.55112945     0.16500
O1294       O  0.40307141  0.89391280  0.54129275    -0.60600
H1295       H  0.38698638  0.88350771  0.52050056     0.43500
H1296       H  0.31192377  0.96298319  0.66452027     0.43400
C1297       C  0.96044739  0.33946004  0.64005740    -0.05600
C1298       C  0.97961401  0.32309787  0.67117558    -0.33100
C1299       C  0.01926320  0.32288540  0.67281266     0.36200
C1300       C  0.04038188  0.33961206  0.64314643    -0.06000
C1301       C  0.02110565  0.35931806  0.61416266    -0.33000
C1302       C  0.98156009  0.35941807  0.61242083     0.36100
H1303       H  0.96400623  0.30883681  0.69358562     0.16400
O1304       O  0.03698710  0.30566886  0.70313179    -0.60500
H1305       H  0.03658164  0.37282107  0.59119780     0.16500
O1306       O  0.96429747  0.37671700  0.58193041    -0.60600
H1307       H  0.95943707  0.40314764  0.59040103     0.43500
H1308       H  0.03445990  0.27804977  0.69847491     0.43400
C1309       C  0.63683879  0.88972877  0.41182534    -0.05600
C1310       C  0.60503037  0.90873454  0.42684490    -0.33100
C1311       C  0.60295291  0.94815258  0.42620017     0.36200
C1312       C  0.63326938  0.96924207  0.41056679    -0.06000
C1313       C  0.66643661  0.95034911  0.39890302    -0.33000
C1314       C  0.66853645  0.91097062  0.39967555     0.36100
H1315       H  0.58059173  0.89312029  0.43712335     0.16400
O1316       O  0.57026179  0.96538659  0.43892239    -0.60500
H1317       H  0.69043781  0.96608868  0.38779522     0.16500
O1318       O  0.70117623  0.89368535  0.38697015    -0.60600
H1319       H  0.71661837  0.88917830  0.41022186     0.43500
H1320       H  0.55278546  0.96556964  0.41665225     0.43400
C1321       C  0.96516585  0.50894522  0.35156723    -0.05600
C1322       C  0.98437409  0.52183180  0.31890393    -0.33100
C1323       C  0.02402872  0.52122601  0.31724774     0.36200
C1324       C  0.04500285  0.50783574  0.34868146    -0.06000
C1325       C  0.02573537  0.49020316  0.37891920    -0.33000
C1326       C  0.98615739  0.49100131  0.38080043     0.36100
H1327       H  0.96879001  0.53437216  0.29538647     0.16400
O1328       O  0.04193174  0.53602252  0.28587714    -0.60500
H1329       H  0.04120439  0.47871263  0.40304812     0.16500
O1330       O  0.96876099  0.47659220  0.41267272    -0.60600
H1331       H  0.96951257  0.49728989  0.43182031     0.43500
H1332       H  0.04620618  0.51412534  0.26862375     0.43400
C1333       C  0.59170214  0.56793794  0.95683169    -0.05600
C1334       C  0.60738354  0.59923369  0.97581378    -0.33100
C1335       C  0.60594108  0.60194342  0.01549394     0.36200
C1336       C  0.58832704  0.57300412  0.03690975    -0.06000
C1337       C  0.56882388  0.54410826  0.01759009    -0.33000
C1338       C  0.57072015  0.54109294  0.97800548     0.36100
H1339       H  0.62243365  0.62092698  0.96006063     0.16400
O1340       O  0.62266654  0.63252436  0.03291752    -0.60500
H1341       H  0.55411970  0.52208216  0.03319303     0.16500
O1342       O  0.55375922  0.51052278  0.96082201    -0.60600
H1343       H  0.57258433  0.48959354  0.96281336     0.43500
H1344       H  0.65045385  0.62737985  0.03211482     0.43400
C1345       C  0.96273119  0.51370922  0.64422730    -0.05600
C1346       C  0.98275321  0.49015440  0.61882239    -0.33100
C1347       C  0.02245713  0.48855940  0.61967075     0.36200
C1348       C  0.04274528  0.51163946  0.64567004    -0.06000
C1349       C  0.02252639  0.52992844  0.67492204    -0.33000
C1350       C  0.98279973  0.53096046  0.67448768     0.36100
H1351       H  0.96796667  0.47509653  0.59633601     0.16400
O1352       O  0.04081440  0.46694211  0.59277891    -0.60500
H1353       H  0.03739776  0.54584519  0.69675553     0.16500
O1354       O  0.96403727  0.55022040  0.70289539    -0.60600
H1355       H  0.96818438  0.57748413  0.69744887     0.43500
H1356       H  0.04925123  0.44383517  0.60656034     0.43400
C1357       C  0.64622446  0.88624422  0.58359629    -0.05600
C1358       C  0.61825832  0.90546064  0.56233297    -0.33100
C1359       C  0.61650501  0.94501153  0.56243054     0.36200
C1360       C  0.64340752  0.96592515  0.58367917    -0.06000
C1361       C  0.67445788  0.94670113  0.60004079    -0.33000
C1362       C  0.67613709  0.90726529  0.59998315     0.36100
H1363       H  0.59577987  0.89000430  0.54802232     0.16400
O1364       O  0.58719239  0.96255173  0.54343145    -0.60500
H1365       H  0.69657646  0.96209177  0.61497774     0.16500
O1366       O  0.70582136  0.88975088  0.61837498    -0.60600
H1367       H  0.72555386  0.88594276  0.59849587     0.43500
H1368       H  0.56488751  0.96050908  0.56055317     0.43400
loop_ 
_geom_bond_atom_site_label_1 
_geom_bond_atom_site_label_2 
_geom_bond_distance 
_geom_bond_site_symmetry_2 
_ccdc_geom_bond_type 
N1            C6   1.356       .  A
N1            C5   1.359       .  A
N1           H33   1.032       .  S
N2            C9   1.358       .  A
N2           C10   1.357       .  A
N3            C8   1.358       .  A
N3            C7   1.356       .  A
N3           H34   1.035       .  S
N4           C11   1.357       .  A
N4           C12   1.360       .  A
C5           C13   1.386       .  A
C5           C21   1.423       .  A
C6           C22   1.424       .  A
C6           C14   1.389       .  A
C7           C15   1.387       .  A
C7           C24   1.421       .  A
C8           C23   1.421       .  A
C8           C16   1.386       .  A
C9           C21   1.422       .  A
C9           C17   1.386       .  A
C10          C24   1.420       .  A
C10          C18   1.386       .  A
C11          C19   1.388       .  A
C11          C22   1.424       .  A
C12          C20   1.385       .  A
C12          C23   1.422       .  A
C13          C14   1.378       .  A
C13          H25   1.083       .  S
C14          H26   1.083       .  S
C15          C16   1.379       .  A
C15          H27   1.083       .  S
C16          H28   1.083       .  S
C17          C18   1.376       .  A
C17          H29   1.082       .  S
C18          H30   1.082       .  S
C19          C20   1.377       .  A
C19          H31   1.082       .  S
C20          H32   1.082       .  S
C21         C419   1.498       .  S
C22         C465   1.490       .  S
C23         C525   1.501       .  S
C24         C491   1.490       .  S
N35          C40   1.358       .  A
N35          C39   1.359       .  A
N35          H67   1.033       .  S
N36          C43   1.359       .  A
N36          C44   1.358       .  A
N37          C42   1.358       .  A
N37          C41   1.356       .  A
N37          H68   1.034       .  S
N38          C45   1.356       .  A
N38          C46   1.358       .  A
C39          C47   1.386       .  A
C39          C55   1.424       .  A
C40          C56   1.425       .  A
C40          C48   1.387       .  A
C41          C49   1.389       .  A
C41          C58   1.423       .  A
C42          C57   1.421       .  A
C42          C50   1.386       .  A
C43          C55   1.423       .  A
C43          C51   1.386       .  A
C44          C58   1.423       .  A
C44          C52   1.387       .  A
C45          C53   1.388       .  A
C45          C56   1.422       .  A
C46          C54   1.385       .  A
C46          C57   1.420       .  A
C47          C48   1.379       .  A
C47          H59   1.083       .  S
C48          H60   1.082       .  S
C49          C50   1.378       .  A
C49          H61   1.083       .  S
C50          H62   1.083       .  S
C51          C52   1.379       .  A
C51          H63   1.082       .  S
C52          H64   1.082       .  S
C53          C54   1.378       .  A
C53          H65   1.082       .  S
C54          H66   1.082       .  S
C55         C431   1.501       .  S
C56         C477   1.492       .  S
C57         C539   1.498       .  S
C58         C455   1.492       .  S
N69          C74   1.359       .  A
N69          C73   1.360       .  A
N69         H101   1.041       .  S
N70          C77   1.356       .  A
N70          C78   1.356       .  A
N71          C76   1.360       .  A
N71          C75   1.359       .  A
N71         H102   1.042       .  S
N72          C79   1.358       .  A
N72          C80   1.358       .  A
C73          C81   1.387       .  A
C73          C89   1.423       .  A
C74          C90   1.423       .  A
C74          C82   1.387       .  A
C75          C83   1.388       .  A
C75          C92   1.425       .  A
C76          C91   1.422       .  A
C76          C84   1.387       .  A
C77          C89   1.418       .  A
C77          C85   1.386       .  A
C78          C92   1.417       .  A
C78          C86   1.386       .  A
C79          C87   1.387       .  A
C79          C90   1.422       .  A
C80          C88   1.386       .  A
C80          C91   1.420       .  A
C81          C82   1.379       .  A
C81          H93   1.082       .  S
C82          H94   1.082       .  S
C83          C84   1.378       .  A
C83          H95   1.082       .  S
C84          H96   1.082       .  S
C85          C86   1.373       .  A
C85          H97   1.083       .  S
C86          H98   1.082       .  S
C87          C88   1.373       .  A
C87          H99   1.083       .  S
C88         H100   1.083       .  S
C89         C411   1.495       .  S
C90         C485   1.496       .  S
C91         C519   1.497       .  S
C92         C461   1.494       .  S
N103        C108   1.357       .  A
N103        C107   1.358       .  A
N103        H135   1.034       .  S
N104        C111   1.358       .  A
N104        C112   1.358       .  A
N105        C110   1.358       .  A
N105        C109   1.357       .  A
N105        H136   1.035       .  S
N106        C113   1.358       .  A
N106        C114   1.358       .  A
C107        C115   1.387       .  A
C107        C123   1.423       .  A
C108        C124   1.424       .  A
C108        C116   1.388       .  A
C109        C117   1.386       .  A
C109        C126   1.422       .  A
C110        C125   1.423       .  A
C110        C118   1.387       .  A
C111        C123   1.423       .  A
C111        C119   1.387       .  A
C112        C126   1.422       .  A
C112        C120   1.386       .  A
C113        C121   1.386       .  A
C113        C124   1.422       .  A
C114        C122   1.387       .  A
C114        C125   1.424       .  A
C115        C116   1.377       .  A
C115        H127   1.083       .  S
C116        H128   1.083       .  S
C117        C118   1.378       .  A
C117        H129   1.083       .  S
C118        H130   1.082       .  S
C119        C120   1.378       .  A
C119        H131   1.082       .  S
C120        H132   1.082       .  S
C121        C122   1.377       .  A
C121        H133   1.082       .  S
C122        H134   1.082       .  S
C123        C447   1.493       .  S
C124        C531   1.495       .  S
C125        C473   1.495       .  S
C126        C425   1.497       .  S
N137        C142   1.359       .  A
N137        C141   1.361       .  A
N137        H169   1.041       .  S
N138        C145   1.360       .  A
N138        C146   1.359       .  A
N139        C144   1.359       .  A
N139        C143   1.359       .  A
N139        H170   1.041       .  S
N140        C147   1.358       .  A
N140        C148   1.358       .  A
C141        C149   1.387       .  A
C141        C157   1.425       .  A
C142        C158   1.426       .  A
C142        C150   1.388       .  A
C143        C151   1.387       .  A
C143        C160   1.424       .  A
C144        C159   1.424       .  A
C144        C152   1.387       .  A
C145        C157   1.423       .  A
C145        C153   1.386       .  A
C146        C160   1.423       .  A
C146        C154   1.387       .  A
C147        C155   1.387       .  A
C147        C158   1.420       .  A
C148        C156   1.386       .  A
C148        C159   1.421       .  A
C149        C150   1.382       .  A
C149        H161   1.082       .  S
C150        H162   1.082       .  S
C151        C152   1.381       .  A
C151        H163   1.082       .  S
C152        H164   1.082       .  S
C153        C154   1.372       .  A
C153        H165   1.083       .  S
C154        H166   1.083       .  S
C155        C156   1.374       .  A
C155        H167   1.083       .  S
C156        H168   1.083       .  S
C157        C501   1.505       .  S
C158        C443   1.496       .  S
C159        C513   1.500       .  S
C160        C551   1.500       .  S
N171        C176   1.359       .  A
N171        C175   1.358       .  A
N171        H203   1.036       .  S
N172        C179   1.357       .  A
N172        C180   1.359       .  A
N173        C178   1.357       .  A
N173        C177   1.358       .  A
N173        H204   1.037       .  S
N174        C181   1.358       .  A
N174        C182   1.358       .  A
C175        C183   1.387       .  A
C175        C191   1.424       .  A
C176        C192   1.426       .  A
C176        C184   1.387       .  A
C177        C185   1.386       .  A
C177        C194   1.420       .  A
C178        C193   1.422       .  A
C178        C186   1.387       .  A
C179        C191   1.423       .  A
C179        C187   1.387       .  A
C180        C194   1.421       .  A
C180        C188   1.385       .  A
C181        C189   1.387       .  A
C181        C192   1.424       .  A
C182        C190   1.386       .  A
C182        C193   1.422       .  A
C183        C184   1.379       .  A
C183        H195   1.083       .  S
C184        H196   1.083       .  S
C185        C186   1.377       .  A
C185        H197   1.083       .  S
C186        H198   1.083       .  S
C187        C188   1.379       .  A
C187        H199   1.082       .  S
C188        H200   1.082       .  S
C189        C190   1.380       .  A
C189        H201   1.082       .  S
C190        H202   1.082       .  S
C191        C435   1.494       .  S
C192        C507   1.501       .  S
C193        C545   1.496       .  S
C194        C497   1.497       .  S
N205        C210   1.358   1_655  A
N205        C209   1.360       .  A
N205        H237   1.041       .  S
N206        C213   1.358   1_556  A
N206        C214   1.356       .  A
N207        C212   1.360       .  A
N207        C211   1.358   1_455  A
N207        H238   1.041   1_455  S
N208        C215   1.357       .  A
N208        C216   1.358   1_554  A
C209        C217   1.387       .  A
C209        C225   1.422       .  A
C210        C226   1.423       .  A
C210        C218   1.388       .  A
C211        C219   1.387       .  A
C211        C228   1.422       .  A
C212        C227   1.423       .  A
C212        C220   1.387       .  A
C213        C225   1.418       .  A
C213        C221   1.385       .  A
C214        C228   1.421       .  A
C214        C222   1.388       .  A
C215        C223   1.387       .  A
C215        C226   1.420       .  A
C216        C224   1.386       .  A
C216        C227   1.420       .  A
C217        C218   1.379   1_655  A
C217        H229   1.082       .  S
C218        H230   1.082       .  S
C219        C220   1.379   1_655  A
C219        H231   1.082       .  S
C220        H232   1.082       .  S
C221        C222   1.372   1_554  A
C221        H233   1.083       .  S
C222        H234   1.083       .  S
C223        C224   1.373   1_554  A
C223        H235   1.083       .  S
C224        H236   1.083       .  S
C225        C609   1.498       .  S
C226        C563   1.492       .  S
C227        C875   1.500       .  S
C228        C647   1.492       .  S
N239        C244   1.360   1_554  A
N239        C243   1.360       .  A
N239        H271   1.042       .  S
N240        C247   1.360       .  A
N240        C248   1.359       .  A
N241        C246   1.361   1_565  A
N241        C245   1.360   1_566  A
N241        H272   1.041       .  S
N242        C249   1.358       .  A
N242        C250   1.359       .  A
C243        C251   1.388       .  A
C243        C259   1.426       .  A
C244        C260   1.425       .  A
C244        C252   1.387       .  A
C245        C253   1.387       .  A
C245        C262   1.426   1_545  A
C246        C261   1.426   1_545  A
C246        C254   1.387       .  A
C247        C259   1.423       .  A
C247        C255   1.386       .  A
C248        C262   1.424       .  A
C248        C256   1.387       .  A
C249        C257   1.387       .  A
C249        C260   1.423       .  A
C250        C258   1.385       .  A
C250        C261   1.421       .  A
C251        C252   1.381   1_554  A
C251        H263   1.082       .  S
C252        H264   1.082       .  S
C253        C254   1.379   1_554  A
C253        H265   1.082       .  S
C254        H266   1.082       .  S
C255        C256   1.373       .  A
C255        H267   1.083       .  S
C256        H268   1.083       .  S
C257        C258   1.374       .  A
C257        H269   1.083       .  S
C258        H270   1.083       .  S
C259        C597   1.501       .  S
C260        C671   1.499       .  S
C261        C585   1.502   1_565  S
C262        C573   1.501   1_565  S
N273        C278   1.359       .  A
N273        C277   1.359   1_655  A
N273        H305   1.041       .  S
N274        C281   1.358   1_556  A
N274        C282   1.359       .  A
N275        C280   1.360       .  A
N275        C279   1.360   1_655  A
N275        H306   1.041       .  S
N276        C283   1.358       .  A
N276        C284   1.359   1_554  A
C277        C285   1.387       .  A
C277        C293   1.422       .  A
C278        C294   1.422       .  A
C278        C286   1.387       .  A
C279        C287   1.387       .  A
C279        C296   1.424       .  A
C280        C295   1.425       .  A
C280        C288   1.387       .  A
C281        C293   1.421       .  A
C281        C289   1.386       .  A
C282        C296   1.422       .  A
C282        C290   1.387       .  A
C283        C291   1.387       .  A
C283        C294   1.422       .  A
C284        C292   1.386       .  A
C284        C295   1.421       .  A
C285        C286   1.378   1_455  A
C285        H297   1.082       .  S
C286        H298   1.082       .  S
C287        C288   1.380   1_455  A
C287        H299   1.082       .  S
C288        H300   1.082       .  S
C289        C290   1.372   1_554  A
C289        H301   1.083       .  S
C290        H302   1.083       .  S
C291        C292   1.373   1_554  A
C291        H303   1.083       .  S
C292        H304   1.083       .  S
C293        C557   1.496       .  S
C294        C605   1.494       .  S
C295        C639   1.500       .  S
C296        C869   1.499       .  S
N307        C312   1.356       .  A
N307        C311   1.356       .  A
N307        H339   1.044       .  S
N308        C315   1.356   1_556  A
N308        C316   1.356       .  A
N309        C314   1.355       .  A
N309        C313   1.357       .  A
N309        H340   1.044       .  S
N310        C317   1.357   1_565  A
N310        C318   1.356   1_564  A
C311        C319   1.387       .  A
C311        C327   1.421       .  A
C312        C328   1.419       .  A
C312        C320   1.386       .  A
C313        C321   1.386       .  A
C313        C330   1.423       .  A
C314        C329   1.422   1_565  A
C314        C322   1.388       .  A
C315        C327   1.420       .  A
C315        C323   1.386       .  A
C316        C330   1.420       .  A
C316        C324   1.386       .  A
C317        C325   1.386       .  A
C317        C328   1.419   1_545  A
C318        C326   1.387       .  A
C318        C329   1.420       .  A
C319        C320   1.379       .  A
C319        H331   1.083       .  S
C320        H332   1.083       .  S
C321        C322   1.378       .  A
C321        H333   1.083       .  S
C322        H334   1.083       .  S
C323        C324   1.379   1_554  A
C323        H335   1.082       .  S
C324        H336   1.082       .  S
C325        C326   1.377   1_554  A
C325        H337   1.082       .  S
C326        H338   1.082       .  S
C327        C593   1.493       .  S
C328        C567   1.494   1_565  S
C329        C579   1.489       .  S
C330        C663   1.497       .  S
N341        C346   1.359   1_465  A
N341        C345   1.358   1_565  A
N341        H373   1.038       .  S
N342        C349   1.358       .  A
N342        C350   1.359       .  A
N343        C348   1.357       .  A
N343        C347   1.357   1_655  A
N343        H374   1.039       .  S
N344        C351   1.358       .  A
N344        C352   1.358       .  A
C345        C353   1.388       .  A
C345        C361   1.427       .  A
C346        C362   1.423       .  A
C346        C354   1.386       .  A
C347        C355   1.386       .  A
C347        C364   1.422       .  A
C348        C363   1.423       .  A
C348        C356   1.388       .  A
C349        C361   1.425   1_565  A
C349        C357   1.387       .  A
C350        C364   1.423       .  A
C350        C358   1.385       .  A
C351        C359   1.387       .  A
C351        C362   1.424   1_565  A
C352        C360   1.386       .  A
C352        C363   1.423       .  A
C353        C354   1.378   1_455  A
C353        H365   1.083       .  S
C354        H366   1.083       .  S
C355        C356   1.377   1_455  A
C355        H367   1.083       .  S
C356        H368   1.083       .  S
C357        C358   1.380       .  A
C357        H369   1.082       .  S
C358        H370   1.082       .  S
C359        C360   1.380       .  A
C359        H371   1.082       .  S
C360        H372   1.082       .  S
C361       C1031   1.498       .  S
C362        C621   1.499       .  S
C363        C659   1.495       .  S
C364        C633   1.503       .  S
N375        C380   1.357       .  A
N375        C379   1.359       .  A
N375        H407   1.041       .  S
N376        C383   1.358       .  A
N376        C384   1.357   1_455  A
N377        C382   1.361       .  A
N377        C381   1.359       .  A
N377        H408   1.042       .  S
N378        C385   1.359   1_665  A
N378        C386   1.359   1_565  A
C379        C387   1.387       .  A
C379        C395   1.422       .  A
C380        C396   1.423       .  A
C380        C388   1.388       .  A
C381        C389   1.388       .  A
C381        C398   1.425       .  A
C382        C397   1.423       .  A
C382        C390   1.387       .  A
C383        C395   1.420       .  A
C383        C391   1.386       .  A
C384        C398   1.418       .  A
C384        C392   1.387       .  A
C385        C393   1.386       .  A
C385        C396   1.423   1_545  A
C386        C394   1.387       .  A
C386        C397   1.423   1_545  A
C387        C388   1.380       .  A
C387        H399   1.082       .  S
C388        H400   1.082       .  S
C389        C390   1.379       .  A
C389        H401   1.082       .  S
C390        H402   1.082       .  S
C391        C392   1.373   1_455  A
C391        H403   1.083       .  S
C392        H404   1.083       .  S
C393        C394   1.372   1_455  A
C393        H405   1.083       .  S
C394        H406   1.083       .  S
C395        C627   1.498       .  S
C396       C1023   1.497   1_565  S
C397        C615   1.501   1_565  S
C398        C653   1.492       .  S
C409        N410   1.373       .  A
C409        N414   1.353       .  A
C409        C737   1.477       .  S
N410        C411   1.369       .  A
C411        N412   1.355       .  A
N412        C413   1.355       .  A
C413        N414   1.355       .  A
C413       C1357   1.479       .  S
C415        N416   1.351       .  A
C415        N420   1.375       .  A
C415        C833   1.477       .  S
N416        C417   1.354       .  A
C417        N418   1.354       .  A
C417       C1360   1.480   1_545  S
N418        C419   1.355       .  A
C419        N420   1.373       .  A
C421        N422   1.352       .  A
C421        N426   1.373       .  A
C421        C762   1.479       .  S
N422        C423   1.354       .  A
C423        N424   1.356       .  A
C423       C1345   1.481       .  S
N424        C425   1.357       .  A
C425        N426   1.371       .  A
C427        N428   1.356       .  A
C427        N432   1.378       .  A
C427        C716   1.488       .  S
N428        C429   1.358       .  A
C429        N430   1.352       .  A
C429       C1348   1.482       .  S
N430        C431   1.352       .  A
C431        N432   1.374       .  A
C433        N434   1.376       .  A
C433        N438   1.355       .  A
C433        C726   1.480       .  S
N434        C435   1.372       .  A
C435        N436   1.351       .  A
N436        C437   1.350       .  A
C437        N438   1.356       .  A
C437       C1333   1.476       .  S
C439        N440   1.349       .  A
C439        N444   1.373       .  A
C439        C774   1.470       .  S
N440        C441   1.351       .  A
C441        N442   1.355       .  A
C441       C1336   1.477       .  S
N442        C443   1.355       .  A
C443        N444   1.371       .  A
C445        N446   1.373       .  A
C445        N450   1.352       .  A
C445        C785   1.470       .  S
N446        C447   1.370       .  A
C447        N448   1.353       .  A
N448        C449   1.352       .  A
C449        N450   1.353       .  A
C449       C1321   1.475       .  S
C451        N452   1.355       .  A
C451        N456   1.373       .  A
C451        C941   1.476       .  S
N452        C453   1.355       .  A
C453        N454   1.351       .  A
C453       C1324   1.472       .  S
N454        C455   1.352       .  A
C455        N456   1.369       .  A
C457        N458   1.350       .  A
C457        N462   1.373       .  A
C457        C810   1.472       .  S
N458        C459   1.352       .  A
C459        N460   1.353       .  A
C459       C1309   1.473       .  S
N460        C461   1.353       .  A
C461        N462   1.371       .  A
C463        N464   1.373       .  A
C463        N468   1.353       .  A
C463       C1014   1.475       .  S
N464        C465   1.369       .  A
C465        N466   1.351       .  A
N466        C467   1.350       .  A
C467        N468   1.355       .  A
C467       C1312   1.471   1_545  S
C469        N470   1.350       .  A
C469        N474   1.375       .  A
C469        C822   1.472       .  S
N470        C471   1.351       .  A
C471        N472   1.351       .  A
C471       C1297   1.473       .  S
N472        C473   1.352       .  A
C473        N474   1.373       .  A
C475        N476   1.374       .  A
C475        N480   1.352       .  A
C475        C882   1.475       .  S
N476        C477   1.371       .  A
C477        N478   1.352       .  A
N478        C479   1.352       .  A
C479        N480   1.353       .  A
C479       C1300   1.473       .  S
C481        N482   1.350       .  A
C481        N486   1.374       .  A
C481        C690   1.475       .  S
N482        C483   1.354       .  A
C483        N484   1.354       .  A
C483       C1285   1.478       .  S
N484        C485   1.355       .  A
C485        N486   1.371       .  A
C487        N488   1.349       .  A
C487        N492   1.371       .  A
C487        C918   1.470       .  S
N488        C489   1.352       .  A
C489        N490   1.354       .  A
C489       C1288   1.477   1_545  S
N490        C491   1.355       .  A
C491        N492   1.369       .  A
C493        N494   1.354       .  A
C493        N498   1.375       .  A
C493        C858   1.478       .  S
N494        C495   1.354       .  A
C495        N496   1.352       .  A
C495       C1273   1.480       .  S
N496        C497   1.354       .  A
C497        N498   1.372       .  A
C499        N500   1.378       .  A
C499        N504   1.354       .  A
C499        C989   1.486       .  S
N500        C501   1.375       .  A
C501        N502   1.355       .  A
N502        C503   1.354       .  A
C503        N504   1.354       .  A
C503       C1276   1.479       .  S
C505        N506   1.377       .  A
C505        N510   1.354       .  A
C505        C682   1.485       .  S
N506        C507   1.374       .  A
C507        N508   1.354       .  A
N508        C509   1.353       .  A
C509        N510   1.356       .  A
C509       C1264   1.482       .  S
C511        N512   1.374       .  A
C511        N516   1.353       .  A
C511        C966   1.480       .  S
N512        C513   1.371       .  A
C513        N514   1.356       .  A
N514        C515   1.356       .  A
C515        N516   1.355       .  A
C515       C1261   1.481       .  S
C517        N518   1.374       .  A
C517        N522   1.356       .  A
C517        C930   1.479       .  S
N518        C519   1.370       .  A
C519        N520   1.352       .  A
N520        C521   1.353       .  A
C521        N522   1.357       .  A
C521       C1249   1.478       .  S
C523        N524   1.375       .  A
C523        N528   1.352       .  A
C523       C1076   1.475       .  S
N524        C525   1.371       .  A
C525        N526   1.355       .  A
N526        C527   1.356       .  A
C527        N528   1.353       .  A
C527       C1252   1.476   1_545  S
C529        N530   1.374       .  A
C529        N534   1.355       .  A
C529        C978   1.479       .  S
N530        C531   1.370       .  A
C531        N532   1.353       .  A
N532        C533   1.352       .  A
C533        N534   1.356       .  A
C533       C1237   1.479       .  S
C535        N536   1.351       .  A
C535        N540   1.374       .  A
C535       C1042   1.477       .  S
N536        C537   1.354       .  A
C537        N538   1.355       .  A
C537       C1240   1.480       .  S
N538        C539   1.356       .  A
C539        N540   1.371       .  A
C541        N542   1.355       .  A
C541        N546   1.373       .  A
C541        C893   1.476       .  S
N542        C543   1.354       .  A
C543        N544   1.355       .  A
C543       C1225   1.481       .  S
N544        C545   1.355       .  A
C545        N546   1.369       .  A
C547        N548   1.355       .  A
C547        N552   1.377       .  A
C547       C1050   1.482       .  S
N548        C549   1.355       .  A
C549        N550   1.352       .  A
C549       C1228   1.481       .  S
N550        C551   1.353       .  A
C551        N552   1.373       .  A
C553        N554   1.354       .  A
C553        N558   1.373       .  A
C553       C1049   1.476       .  S
N554        C555   1.355       .  A
C555        N556   1.354       .  A
C555       C1216   1.477       .  S
N556        C557   1.354       .  A
C557        N558   1.369       .  A
C559        N560   1.353       .  A
C559        N564   1.373       .  A
C559        C942   1.474       .  S
N560        C561   1.355       .  A
C561        N562   1.352       .  A
C561       C1213   1.477       .  S
N562        C563   1.352       .  A
C563        N564   1.369       .  A
C565        N566   1.374       .  A
C565        N570   1.353       .  A
C565       C1074   1.476       .  S
N566        C567   1.370       .  A
C567        N568   1.353       .  A
N568        C569   1.353       .  A
C569        N570   1.354       .  A
C569       C1201   1.474       .  S
C571        N572   1.377       .  A
C571        N576   1.352       .  A
C571        C990   1.481       .  S
N572        C573   1.374       .  A
C573        N574   1.353       .  A
N574        C575   1.352       .  A
C575        N576   1.354       .  A
C575       C1204   1.474       .  S
C577        N578   1.373       .  A
C577        N582   1.356       .  A
C577        C894   1.476       .  S
N578        C579   1.369       .  A
C579        N580   1.350       .  A
N580        C581   1.349       .  A
C581        N582   1.357       .  A
C581       C1189   1.476       .  S
C583        N584   1.375       .  A
C583        N588   1.347       .  A
C583        C834   1.474       .  S
N584        C585   1.374       .  A
C585        N586   1.358       .  A
N586        C587   1.356       .  A
C587        N588   1.349       .  A
C587       C1192   1.477       .  S
C589        N590   1.350       .  A
C589        N594   1.373       .  A
C589        C968   1.475       .  S
N590        C591   1.352       .  A
C591        N592   1.355       .  A
C591       C1177   1.478       .  S
N592        C593   1.356       .  A
C593        N594   1.371       .  A
C595        N596   1.376       .  A
C595        N600   1.349       .  A
C595        C812   1.476       .  S
N596        C597   1.374       .  A
C597        N598   1.355       .  A
N598        C599   1.354       .  A
C599        N600   1.352       .  A
C599       C1180   1.477       .  S
C601        N602   1.355       .  A
C601        N606   1.375       .  A
C601        C982   1.477       .  S
N602        C603   1.356       .  A
C603        N604   1.350       .  A
C603       C1168   1.478       .  S
N604        C605   1.351       .  A
C605        N606   1.370       .  A
C607        N608   1.372       .  A
C607        N612   1.350       .  A
C607        C778   1.472       .  S
N608        C609   1.370       .  A
C609        N610   1.358       .  A
N610        C611   1.358       .  A
C611        N612   1.352       .  A
C611       C1165   1.481       .  S
C613        N614   1.378       .  A
C613        N618   1.354       .  A
C613       C1016   1.481       .  S
N614        C615   1.374       .  A
C615        N616   1.351       .  A
N616        C617   1.349       .  A
C617        N618   1.354       .  A
C617       C1156   1.473       .  S
C619        N620   1.376       .  A
C619        N624   1.350       .  A
C619        C826   1.473       .  S
N620        C621   1.373       .  A
C621        N622   1.354       .  A
N622        C623   1.354       .  A
C623        N624   1.351       .  A
C623       C1153   1.474       .  S
C625        N626   1.373       .  A
C625        N630   1.355       .  A
C625        C934   1.481       .  S
N626        C627   1.370       .  A
C627        N628   1.356       .  A
N628        C629   1.356       .  A
C629        N630   1.357       .  A
C629       C1144   1.484       .  S
C631        N632   1.375       .  A
C631        N636   1.353       .  A
C631        C714   1.482       .  S
N632        C633   1.372       .  A
C633        N634   1.358       .  A
N634        C635   1.356       .  A
C635        N636   1.355       .  A
C635       C1141   1.485       .  S
C637        N638   1.376       .  A
C637        N642   1.350       .  A
C637        C860   1.475       .  S
N638        C639   1.373       .  A
C639        N640   1.354       .  A
N640        C641   1.355       .  A
C641        N642   1.351       .  A
C641       C1129   1.475       .  S
C643        N644   1.355       .  A
C643        N648   1.374       .  A
C643        C764   1.475       .  S
N644        C645   1.356       .  A
C645        N646   1.349       .  A
C645       C1132   1.474       .  S
N646        C647   1.351       .  A
C647        N648   1.369       .  A
C649        N650   1.352       .  A
C649        N654   1.375       .  A
C649        C786   1.471       .  S
N650        C651   1.353       .  A
C651        N652   1.349       .  A
C651       C1117   1.471       .  S
N652        C653   1.350       .  A
C653        N654   1.370       .  A
C655        N656   1.354       .  A
C655        N660   1.377       .  A
C655        C738   1.481       .  S
N656        C657   1.354       .  A
C657        N658   1.350       .  A
C657       C1120   1.469       .  S
N658        C659   1.351       .  A
C659        N660   1.372       .  A
C661        N662   1.372       .  A
C661        N666   1.349       .  A
C661        C689   1.475       .  S
N662        C663   1.371       .  A
C663        N664   1.358       .  A
N664        C665   1.357       .  A
C665        N666   1.352       .  A
C665       C1105   1.481       .  S
C667        N668   1.353       .  A
C667        N672   1.376       .  A
C667        C730   1.481       .  S
N668        C669   1.355       .  A
C669        N670   1.352       .  A
C669       C1108   1.479       .  S
N670        C671   1.353       .  A
C671        N672   1.373       .  A
O673       Mg675   2.111       .  S
O673       Mg681   2.133       .  S
O673        C708   1.241       .  S
C674        H713   1.081       .  S
C674        O687   1.242       .  S
C674        O711   1.275       .  A
Mg675       O704   2.133       .  S
Mg675       O719   2.351       .  S
Mg675       O715   2.288       .  S
Mg675       O686   2.298       .  S
O676       Mg718   2.132       .  S
O676       Mg701   2.102       .  S
O676        C697   1.241       .  S
O677        C708   1.274       .  A
O677       Mg701   2.296       .  S
C678        C871   1.476       .  S
C678        O680   1.275       .  A
C678        O692   1.282       .  A
O679        C707   1.275       .  A
O679       Mg681   2.298       .  S
O680       Mg712   2.277       .  S
Mg681       O687   2.120       .  S
Mg681       O695   2.285       .  S
Mg681       O683   2.345       .  S
C682        O720   1.276       .  A
C682        O688   1.283       .  A
O683        C690   1.282       .  A
H684        C697   1.081       .  S
C685        H710   1.081       .  S
C685        O699   1.243       .  S
C685        O700   1.275       .  A
O686        C709   1.274       .  A
O687       Mg701   2.137       .  S
O688       Mg718   2.353       .  S
C689        O702   1.274       .  A
C689        O694   1.281       .  A
C690        O717   1.273       .  A
Mg691       O698   2.118       .  S
Mg691       O699   2.137       .  S
Mg691       O692   2.337       .  S
Mg691       O693   2.292       .  S
Mg691       O720   2.291       .  S
O693        C697   1.273       .  A
O694       Mg701   2.336       .  S
O695        C714   1.276       .  A
O696        C716   1.285       .  A
O696       Mg712   2.368       .  S
O698       Mg712   2.133       .  S
O698        C709   1.241       .  S
O699       Mg718   2.111       .  S
O700       Mg712   2.303       .  S
Mg701       O717   2.266       .  S
O702       Mg718   2.278       .  S
H703        C708   1.081       .  S
O704       Mg712   2.114       .  S
O704        C707   1.243       .  S
H705        C707   1.081       .  S
H706        C709   1.081       .  S
O711       Mg718   2.302       .  S
C714        O719   1.284       .  A
O715        C716   1.277       .  A
O721       Mg723   2.112       .  S
O721       Mg729   2.135       .  S
O721        C756   1.241       .  S
C722        H761   1.081       .  S
C722        O735   1.243       .  S
C722        O759   1.275       .  A
Mg723       O752   2.137       .  S
Mg723       O767   2.340       .  S
Mg723       O763   2.276       .  S
Mg723       O734   2.295       .  S
O724       Mg766   2.133       .  S
O724       Mg749   2.115       .  S
O724        C745   1.241       .  S
O725        C756   1.274       .  A
O725       Mg749   2.297       .  S
C726        O728   1.275       .  A
C726        O740   1.283       .  A
O727        C755   1.274       .  A
O727       Mg729   2.300       .  S
O728       Mg760   2.284       .  S
Mg729       O735   2.118       .  S
Mg729       O743   2.289       .  S
Mg729       O731   2.355       .  S
C730        O768   1.276       .  A
C730        O736   1.282       .  A
O731        C738   1.284       .  A
H732        C745   1.081       .  S
C733        H758   1.081       .  S
C733        O747   1.242       .  S
C733        O748   1.274       .  A
O734        C757   1.274       .  A
O735       Mg749   2.138       .  S
O736       Mg766   2.345       .  S
C737        O750   1.274       .  A
C737        O742   1.281       .  A
C738        O765   1.275       .  A
Mg739       O746   2.110       .  S
Mg739       O747   2.137       .  S
Mg739       O740   2.349       .  S
Mg739       O741   2.297       .  S
Mg739       O768   2.286       .  S
O741        C745   1.274       .  A
O742       Mg749   2.341       .  S
O743        C762   1.276       .  A
O744        C764   1.280       .  A
O744       Mg760   2.332       .  S
O746       Mg760   2.136       .  S
O746        C757   1.242       .  S
O747       Mg766   2.109       .  S
O748       Mg760   2.292       .  S
Mg749       O765   2.277       .  S
O750       Mg766   2.273       .  S
H751        C756   1.081       .  S
O752       Mg760   2.120       .  S
O752        C755   1.241       .  S
H753        C755   1.081       .  S
H754        C757   1.081       .  S
O759       Mg766   2.302       .  S
C762        O767   1.282       .  A
O763        C764   1.275       .  A
O769       Mg771   2.107       .  S
O769       Mg777   2.112       .  S
O769        C804   1.242       .  S
C770        H809   1.081       .  S
C770        O783   1.242       .  S
C770        O807   1.275       .  A
Mg771       O800   2.111       .  S
Mg771       O815   2.349       .  S
Mg771       O811   2.261       .  S
Mg771       O782   2.308       .  S
O772       Mg814   2.110       .  S
O772       Mg797   2.124       .  S
O772        C793   1.241       .  S
O773        C804   1.275       .  A
O773       Mg797   2.304       .  S
C774        O776   1.271       .  A
C774        O788   1.277       .  A
O775        C803   1.275       .  A
O775       Mg777   2.304       .  S
O776       Mg808   2.252       .  S
Mg777       O783   2.119       .  S
Mg777       O791   2.264       .  S
Mg777       O779   2.351       .  S
C778        O816   1.271       .  A
C778        O784   1.279       .  A
O779        C786   1.279       .  A
H780        C793   1.081       .  S
C781        H806   1.081       .  S
C781        O795   1.243       .  S
C781        O796   1.277       .  A
O782        C805   1.276       .  A
O783       Mg797   2.112       .  S
O784       Mg814   2.363       .  S
C785        O798   1.272       .  A
C785        O790   1.278       .  A
C786        O813   1.273       .  A
Mg787       O794   2.118       .  S
Mg787       O795   2.109       .  S
Mg787       O788   2.349       .  S
Mg787       O789   2.312       .  S
Mg787       O816   2.252       .  S
O789        C793   1.275       .  A
O790       Mg797   2.349       .  S
O791        C810   1.274       .  A
O792        C812   1.279       .  A
O792       Mg808   2.362       .  S
O794       Mg808   2.109       .  S
O794        C805   1.242       .  S
O795       Mg814   2.121       .  S
O796       Mg808   2.316       .  S
Mg797       O813   2.256       .  S
O798       Mg814   2.254       .  S
H799        C804   1.081       .  S
O800       Mg808   2.112       .  S
O800        C803   1.242       .  S
H801        C803   1.081       .  S
H802        C805   1.081       .  S
O807       Mg814   2.311       .  S
C810        O815   1.279       .  A
O811        C812   1.273       .  A
O817       Mg819   2.124       .  S
O817       Mg825   2.105       .  S
O817        C852   1.242       .  S
C818        H857   1.081       .  S
C818        O831   1.243       .  S
C818        O855   1.277       .  A
Mg819       O848   2.108       .  S
Mg819       O863   2.366       .  S
Mg819       O859   2.252       .  S
Mg819       O830   2.309       .  S
O820       Mg862   2.105       .  S
O820       Mg845   2.111       .  S
O820        C841   1.242       .  S
O821        C852   1.276       .  A
O821       Mg845   2.315       .  S
C822        O824   1.273       .  A
C822        O836   1.279       .  A
O823        C851   1.276       .  A
O823       Mg825   2.314       .  S
O824       Mg856   2.257       .  S
Mg825       O831   2.124       .  S
Mg825       O839   2.266       .  S
Mg825       O827   2.371       .  S
C826        O864   1.272       .  A
C826        O832   1.279       .  A
O827        C834   1.281       .  A
H828        C841   1.081       .  S
C829        H854   1.081       .  S
C829        O843   1.242       .  S
C829        O844   1.276       .  A
O830        C853   1.275       .  A
O831       Mg845   2.109       .  S
O832       Mg862   2.362       .  S
C833        O846   1.272       .  A
C833        O838   1.281       .  A
C834        O861   1.272       .  A
Mg835       O842   2.113       .  S
Mg835       O843   2.109       .  S
Mg835       O836   2.355       .  S
Mg835       O837   2.308       .  S
Mg835       O864   2.249       .  S
O837        C841   1.275       .  A
O838       Mg845   2.372       .  S
O839        C858   1.274       .  A
O840        C860   1.280       .  A
O840       Mg856   2.369       .  S
O842       Mg856   2.109       .  S
O842        C853   1.242       .  S
O843       Mg862   2.119       .  S
O844       Mg856   2.310       .  S
Mg845       O861   2.249       .  S
O846       Mg862   2.257       .  S
H847        C852   1.081       .  S
O848       Mg856   2.120       .  S
O848        C851   1.242       .  S
H849        C851   1.081       .  S
H850        C853   1.081       .  S
O855       Mg862   2.314       .  S
C858        O863   1.279       .  A
O859        C860   1.272       .  A
C865        N866   1.354       .  A
C865        N870   1.375       .  A
C865        C886   1.480       .  S
N866        C867   1.356       .  A
C867        N868   1.353       .  A
C867       C1093   1.481       .  S
N868        C869   1.353       .  A
C869        N870   1.371       .  A
C871        N872   1.352       .  A
C871        N876   1.374       .  A
N872        C873   1.353       .  A
C873        N874   1.356       .  A
C873       C1096   1.480       .  S
N874        C875   1.356       .  A
C875        N876   1.371       .  A
O877       Mg879   2.110       .  S
O877       Mg885   2.139       .  S
O877        C912   1.241       .  S
C878        H917   1.081       .  S
C878        O891   1.241       .  S
C878        O915   1.273       .  A
Mg879       O908   2.135       .  S
Mg879       O923   2.331       .  S
Mg879       O919   2.288       .  S
Mg879       O890   2.292       .  S
O880       Mg922   2.139       .  S
O880       Mg905   2.116       .  S
O880        C901   1.241       .  S
O881        C912   1.272       .  A
O881       Mg905   2.291       .  S
C882        O884   1.274       .  A
C882        O896   1.281       .  A
O883        C911   1.273       .  A
O883       Mg885   2.292       .  S
O884       Mg916   2.275       .  S
Mg885       O891   2.115       .  S
Mg885       O899   2.268       .  S
Mg885       O887   2.330       .  S
C886        O924   1.275       .  A
C886        O892   1.282       .  A
O887        C894   1.280       .  A
H888        C901   1.081       .  S
C889        H914   1.081       .  S
C889        O903   1.243       .  S
C889        O904   1.275       .  A
O890        C913   1.273       .  A
O891       Mg905   2.140       .  S
O892       Mg922   2.349       .  S
C893        O906   1.276       .  A
C893        O898   1.281       .  A
C894        O921   1.275       .  A
Mg895       O902   2.110       .  S
Mg895       O903   2.139       .  S
Mg895       O896   2.336       .  S
Mg895       O897   2.297       .  S
Mg895       O924   2.278       .  S
O897        C901   1.274       .  A
O898       Mg905   2.331       .  S
O899        C918   1.274       .  A
O900        C920   1.283       .  A
O900       Mg916   2.350       .  S
O902       Mg916   2.134       .  S
O902        C913   1.241       .  S
O903       Mg922   2.121       .  S
O904       Mg916   2.302       .  S
Mg905       O921   2.284       .  S
O906       Mg922   2.284       .  S
H907        C912   1.081       .  S
O908       Mg916   2.104       .  S
O908        C911   1.242       .  S
H909        C911   1.081       .  S
H910        C913   1.081       .  S
O915       Mg922   2.298       .  S
C918        O923   1.281       .  A
O919        C920   1.276       .  A
C920       C1027   1.483       .  S
O925       Mg927   2.109       .  S
O925       Mg933   2.136       .  S
O925        C960   1.242       .  S
C926        H965   1.081       .  S
C926        O939   1.242       .  S
C926        O963   1.274       .  A
Mg927       O956   2.135       .  S
Mg927       O971   2.348       .  S
Mg927       O967   2.276       .  S
Mg927       O938   2.303       .  S
O928       Mg970   2.136       .  S
O928       Mg953   2.110       .  S
O928        C949   1.240       .  S
O929        C960   1.274       .  A
O929       Mg953   2.295       .  S
C930        O932   1.275       .  A
C930        O944   1.282       .  A
O931        C959   1.273       .  A
O931       Mg933   2.297       .  S
O932       Mg964   2.282       .  S
Mg933       O939   2.116       .  S
Mg933       O947   2.279       .  S
Mg933       O935   2.345       .  S
C934        O972   1.276       .  A
C934        O940   1.282       .  A
O935        C942   1.282       .  A
H936        C949   1.081       .  S
C937        H962   1.081       .  S
C937        O951   1.242       .  S
C937        O952   1.274       .  A
O938        C961   1.275       .  A
O939       Mg953   2.135       .  S
O940       Mg970   2.343       .  S
C941        O954   1.275       .  A
C941        O946   1.280       .  A
C942        O969   1.273       .  A
Mg943       O950   2.126       .  S
Mg943       O951   2.141       .  S
Mg943       O944   2.348       .  S
Mg943       O945   2.294       .  S
Mg943       O972   2.289       .  S
O945        C949   1.273       .  A
O946       Mg953   2.331       .  S
O947        C966   1.275       .  A
O948        C968   1.281       .  A
O948       Mg964   2.337       .  S
O950       Mg964   2.138       .  S
O950        C961   1.242       .  S
O951       Mg970   2.115       .  S
O952       Mg964   2.296       .  S
Mg953       O969   2.265       .  S
O954       Mg970   2.279       .  S
H955        C960   1.081       .  S
O956       Mg964   2.114       .  S
O956        C959   1.241       .  S
H957        C959   1.081       .  S
H958        C961   1.081       .  S
O963       Mg970   2.299       .  S
C966        O971   1.283       .  A
O967        C968   1.274       .  A
O973       Mg975   2.115       .  S
O973       Mg981   2.128       .  S
O973       C1008   1.242       .  S
C974       H1013   1.081       .  S
C974        O987   1.242       .  S
C974       O1011   1.274       .  A
Mg975      O1004   2.139       .  S
Mg975      O1019   2.342       .  S
Mg975      O1015   2.282       .  S
Mg975       O986   2.295       .  S
O976      Mg1018   2.136       .  S
O976      Mg1001   2.104       .  S
O976        C997   1.241       .  S
O977       C1008   1.275       .  A
O977      Mg1001   2.301       .  S
C978        O980   1.276       .  A
C978        O992   1.281       .  A
O979       C1007   1.276       .  A
O979       Mg981   2.303       .  S
O980      Mg1012   2.286       .  S
Mg981       O987   2.111       .  S
Mg981       O995   2.270       .  S
Mg981       O983   2.352       .  S
C982       O1020   1.275       .  A
C982        O988   1.282       .  A
O983        C990   1.283       .  A
H984        C997   1.081       .  S
C985       H1010   1.081       .  S
C985        O999   1.242       .  S
C985       O1000   1.275       .  A
O986       C1009   1.273       .  A
O987      Mg1001   2.133       .  S
O988      Mg1018   2.346       .  S
C989       O1002   1.277       .  A
C989        O994   1.284       .  A
C990       O1017   1.276       .  A
Mg991       O998   2.112       .  S
Mg991       O999   2.140       .  S
Mg991       O992   2.336       .  S
Mg991       O993   2.292       .  S
Mg991      O1020   2.273       .  S
O993        C997   1.273       .  A
O994      Mg1001   2.355       .  S
O995       C1014   1.274       .  A
O996       C1016   1.283       .  A
O996      Mg1012   2.351       .  S
O998      Mg1012   2.134       .  S
O998       C1009   1.241       .  S
O999      Mg1018   2.124       .  S
O1000     Mg1012   2.301       .  S
Mg1001     O1017   2.281       .  S
O1002     Mg1018   2.297       .  S
H1003      C1008   1.081       .  S
O1004     Mg1012   2.115       .  S
O1004      C1007   1.243       .  S
H1005      C1007   1.081       .  S
H1006      C1009   1.081       .  S
O1011     Mg1018   2.295       .  S
C1014      O1019   1.281       .  A
O1015      C1016   1.275       .  A
C1021      N1022   1.373       .  A
C1021      N1026   1.353       .  A
C1021      C1038   1.478       .  S
N1022      C1023   1.370       .  A
C1023      N1024   1.355       .  A
N1024      C1025   1.356       .  A
C1025      N1026   1.354       .  A
C1025      C1081   1.481       .  S
C1027      N1028   1.356       .  A
C1027      N1032   1.377       .  A
N1028      C1029   1.356       .  A
C1029      N1030   1.350       .  A
C1029      C1084   1.480       .  S
N1030      C1031   1.351       .  A
C1031      N1032   1.373       .  A
O1033     Mg1035   2.109       .  S
O1033     Mg1041   2.135       .  S
O1033      C1068   1.241       .  S
C1034      H1073   1.081       .  S
C1034      O1047   1.242       .  S
C1034      O1071   1.274       .  A
Mg1035     O1064   2.138       .  S
Mg1035     O1079   2.335       .  S
Mg1035     O1075   2.267       .  S
Mg1035     O1046   2.298       .  S
O1036     Mg1078   2.131       .  S
O1036     Mg1061   2.113       .  S
O1036      C1057   1.240       .  S
O1037      C1068   1.273       .  A
O1037     Mg1061   2.294       .  S
C1038      O1040   1.275       .  A
C1038      O1052   1.282       .  A
O1039      C1067   1.274       .  A
O1039     Mg1041   2.299       .  S
O1040     Mg1072   2.284       .  S
Mg1041     O1047   2.108       .  S
Mg1041     O1055   2.277       .  S
Mg1041     O1043   2.344       .  S
C1042      O1080   1.275       .  A
C1042      O1048   1.282       .  A
O1043      C1050   1.282       .  A
H1044      C1057   1.081       .  S
C1045      H1070   1.081       .  S
C1045      O1059   1.242       .  S
C1045      O1060   1.274       .  A
O1046      C1069   1.274       .  A
O1047     Mg1061   2.137       .  S
O1048     Mg1078   2.339       .  S
C1049      O1062   1.275       .  A
C1049      O1054   1.282       .  A
C1050      O1077   1.276       .  A
Mg1051     O1058   2.110       .  S
Mg1051     O1059   2.141       .  S
Mg1051     O1052   2.343       .  S
Mg1051     O1053   2.295       .  S
Mg1051     O1080   2.277       .  S
O1053      C1057   1.273       .  A
O1054     Mg1061   2.344       .  S
O1055      C1074   1.275       .  A
O1056      C1076   1.281       .  A
O1056     Mg1072   2.340       .  S
O1058     Mg1072   2.135       .  S
O1058      C1069   1.241       .  S
O1059     Mg1078   2.119       .  S
O1060     Mg1072   2.298       .  S
Mg1061     O1077   2.290       .  S
O1062     Mg1078   2.275       .  S
H1063      C1068   1.081       .  S
O1064     Mg1072   2.116       .  S
O1064      C1067   1.242       .  S
H1065      C1067   1.081       .  S
H1066      C1069   1.081       .  S
O1071     Mg1078   2.296       .  S
C1074      O1079   1.280       .  A
O1075      C1076   1.273       .  A
C1081      C1082   1.404       .  A
C1081      C1086   1.412       .  A
C1082      C1083   1.394       .  A
C1082      H1087   1.083       .  S
C1083      C1084   1.414       .  A
C1083      O1088   1.373       .  S
C1084      C1085   1.404       .  A
C1085      C1086   1.396       .  A
C1085      H1089   1.083       .  S
C1086      O1090   1.371       .  S
O1088      H1092   0.991       .  S
O1090      H1091   0.992       .  S
C1093      C1094   1.405       .  A
C1093      C1098   1.413       .  A
C1094      C1095   1.397       .  A
C1094      H1099   1.083       .  S
C1095      C1096   1.411       .  A
C1095      O1100   1.373       .  S
C1096      C1097   1.404       .  A
C1097      C1098   1.393       .  A
C1097      H1101   1.083       .  S
C1098      O1102   1.371       .  S
O1100      H1104   0.993       .  S
O1102      H1103   0.993       .  S
C1105      C1106   1.405       .  A
C1105      C1110   1.414       .  A
C1106      C1107   1.395       .  A
C1106      H1111   1.082       .  S
C1107      C1108   1.413       .  A
C1107      O1112   1.372       .  S
C1108      C1109   1.403       .  A
C1109      C1110   1.393       .  A
C1109      H1113   1.083       .  S
C1110      O1114   1.373       .  S
O1112      H1116   0.993       .  S
O1114      H1115   0.993       .  S
C1117      C1118   1.404       .  A
C1117      C1122   1.412       .  A
C1118      C1119   1.393       .  A
C1118      H1123   1.084       .  S
C1119      C1120   1.406       .  A
C1119      O1124   1.371       .  S
C1120      C1121   1.404       .  A
C1121      C1122   1.390       .  A
C1121      H1125   1.083       .  S
C1122      O1126   1.372       .  S
O1124      H1128   0.992       .  S
O1126      H1127   0.991       .  S
C1129      C1130   1.403       .  A
C1129      C1134   1.412       .  A
C1130      C1131   1.391       .  A
C1130      H1135   1.083       .  S
C1131      C1132   1.413       .  A
C1131      O1136   1.372       .  S
C1132      C1133   1.402       .  A
C1133      C1134   1.395       .  A
C1133      H1137   1.084       .  S
C1134      O1138   1.373       .  S
O1136      H1140   0.991       .  S
O1138      H1139   0.992       .  S
C1141      C1142   1.406       .  A
C1141      C1146   1.412       .  A
C1142      C1143   1.395       .  A
C1142      H1147   1.083       .  S
C1143      C1144   1.411       .  A
C1143      O1148   1.371       .  S
C1144      C1145   1.406       .  A
C1145      C1146   1.399       .  A
C1145      H1149   1.083       .  S
C1146      O1150   1.373       .  S
O1148      H1152   0.992       .  S
O1150      H1151   0.990       .  S
C1153      C1154   1.402       .  A
C1153      C1158   1.412       .  A
C1154      C1155   1.390       .  A
C1154      H1159   1.083       .  S
C1155      C1156   1.412       .  A
C1155      O1160   1.372       .  S
C1156      C1157   1.403       .  A
C1157      C1158   1.395       .  A
C1157      H1161   1.084       .  S
C1158      O1162   1.373       .  S
O1160      H1164   0.992       .  S
O1162      H1163   0.992       .  S
C1165      C1166   1.403       .  A
C1165      C1170   1.413       .  A
C1166      C1167   1.394       .  A
C1166      H1171   1.083       .  S
C1167      C1168   1.414       .  A
C1167      O1172   1.372       .  S
C1168      C1169   1.402       .  A
C1169      C1170   1.396       .  A
C1169      H1173   1.084       .  S
C1170      O1174   1.373       .  S
O1172      H1176   0.992       .  S
O1174      H1175   0.993       .  S
C1177      C1178   1.406       .  A
C1177      C1182   1.412       .  A
C1178      C1179   1.395       .  A
C1178      H1183   1.083       .  S
C1179      C1180   1.410       .  A
C1179      O1184   1.370       .  S
C1180      C1181   1.404       .  A
C1181      C1182   1.392       .  A
C1181      H1185   1.083       .  S
C1182      O1186   1.372       .  S
O1184      H1188   0.992       .  S
O1186      H1187   0.992       .  S
C1189      C1190   1.401       .  A
C1189      C1194   1.415   1_545  A
C1190      C1191   1.394       .  A
C1190      H1195   1.084       .  S
C1191      C1192   1.413       .  A
C1191      O1196   1.373       .  S
C1192      C1193   1.402   1_545  A
C1193      C1194   1.393       .  A
C1193      H1197   1.083       .  S
C1194      O1198   1.371       .  S
O1196      H1200   0.992       .  S
O1198      H1199   0.993       .  S
C1201      C1202   1.405   1_545  A
C1201      C1206   1.408       .  A
C1202      C1203   1.395   1_565  A
C1202      H1207   1.083       .  S
C1203      C1204   1.411       .  A
C1203      O1208   1.374   1_545  S
C1204      C1205   1.404       .  A
C1205      C1206   1.395       .  A
C1205      H1209   1.084       .  S
C1206      O1210   1.372       .  S
O1208      H1212   0.990       .  S
O1210      H1211   0.993       .  S
C1213      C1214   1.405       .  A
C1213      C1218   1.413       .  A
C1214      C1215   1.394       .  A
C1214      H1219   1.083       .  S
C1215      C1216   1.409       .  A
C1215      O1220   1.371       .  S
C1216      C1217   1.405       .  A
C1217      C1218   1.394       .  A
C1217      H1221   1.083       .  S
C1218      O1222   1.373       .  S
O1220      H1224   0.992       .  S
O1222      H1223   0.991       .  S
C1225      C1226   1.403       .  A
C1225      C1230   1.411       .  A
C1226      C1227   1.394   1_556  A
C1226      H1231   1.082       .  S
C1227      C1228   1.412       .  A
C1227      O1232   1.372       .  S
C1228      C1229   1.406       .  A
C1229      C1230   1.396   1_554  A
C1229      H1233   1.083       .  S
C1230      O1234   1.371       .  S
O1232      H1236   0.992       .  S
O1234      H1235   0.992       .  S
C1237      C1238   1.407       .  A
C1237      C1242   1.409       .  A
C1238      C1239   1.396   1_655  A
C1238      H1243   1.083       .  S
C1239      C1240   1.411       .  A
C1239      O1244   1.373       .  S
C1240      C1241   1.406       .  A
C1241      C1242   1.394   1_455  A
C1241      H1245   1.083       .  S
C1242      O1246   1.371       .  S
O1244      H1248   0.991       .  S
O1246      H1247   0.992       .  S
C1249      C1250   1.405       .  A
C1249      C1254   1.412       .  A
C1250      C1251   1.399       .  A
C1250      H1255   1.083       .  S
C1251      C1252   1.410       .  A
C1251      O1256   1.373       .  S
C1252      C1253   1.402       .  A
C1253      C1254   1.393       .  A
C1253      H1257   1.083       .  S
C1254      O1258   1.374       .  S
O1256      H1260   0.992       .  S
O1258      H1259   0.991       .  S
C1261      C1262   1.405       .  A
C1261      C1266   1.411       .  A
C1262      C1263   1.397   1_554  A
C1262      H1267   1.083       .  S
C1263      C1264   1.414       .  A
C1263      O1268   1.373       .  S
C1264      C1265   1.405       .  A
C1265      C1266   1.394   1_556  A
C1265      H1269   1.083       .  S
C1266      O1270   1.372       .  S
O1268      H1272   0.990       .  S
O1270      H1271   0.992       .  S
C1273      C1274   1.406       .  A
C1273      C1278   1.412       .  A
C1274      C1275   1.395   1_556  A
C1274      H1279   1.083       .  S
C1275      C1276   1.410       .  A
C1275      O1280   1.372       .  S
C1276      C1277   1.404       .  A
C1277      C1278   1.395   1_554  A
C1277      H1281   1.082       .  S
C1278      O1282   1.373       .  S
O1280      H1284   0.992       .  S
O1282      H1283   0.990       .  S
C1285      C1286   1.403       .  A
C1285      C1290   1.412       .  A
C1286      C1287   1.391       .  A
C1286      H1291   1.083       .  S
C1287      C1288   1.411       .  A
C1287      O1292   1.373       .  S
C1288      C1289   1.406       .  A
C1289      C1290   1.395       .  A
C1289      H1293   1.083       .  S
C1290      O1294   1.371       .  S
O1292      H1296   0.992       .  S
O1294      H1295   0.992       .  S
C1297      C1298   1.405       .  A
C1297      C1302   1.411       .  A
C1298      C1299   1.394   1_655  A
C1298      H1303   1.083       .  S
C1299      C1300   1.409       .  A
C1299      O1304   1.373       .  S
C1300      C1301   1.404       .  A
C1301      C1302   1.390   1_455  A
C1301      H1305   1.083       .  S
C1302      O1306   1.371       .  S
O1304      H1308   0.992       .  S
O1306      H1307   0.993       .  S
C1309      C1310   1.404       .  A
C1309      C1314   1.410       .  A
C1310      C1311   1.393       .  A
C1310      H1315   1.083       .  S
C1311      C1312   1.412       .  A
C1311      O1316   1.372       .  S
C1312      C1313   1.402       .  A
C1313      C1314   1.392       .  A
C1313      H1317   1.084       .  S
C1314      O1318   1.371       .  S
O1316      H1320   0.993       .  S
O1318      H1319   0.991       .  S
C1321      C1322   1.406       .  A
C1321      C1326   1.412       .  A
C1322      C1323   1.394   1_655  A
C1322      H1327   1.083       .  S
C1323      C1324   1.406       .  A
C1323      O1328   1.371       .  S
C1324      C1325   1.405       .  A
C1325      C1326   1.392   1_455  A
C1325      H1329   1.083       .  S
C1326      O1330   1.372       .  S
O1328      H1332   0.992       .  S
O1330      H1331   0.992       .  S
C1333      C1334   1.402       .  A
C1333      C1338   1.413       .  A
C1334      C1335   1.395   1_556  A
C1334      H1339   1.084       .  S
C1335      C1336   1.413       .  A
C1335      O1340   1.373       .  S
C1336      C1337   1.403       .  A
C1337      C1338   1.393   1_554  A
C1337      H1341   1.083       .  S
C1338      O1342   1.372       .  S
O1340      H1344   0.993       .  S
O1342      H1343   0.993       .  S
C1345      C1346   1.405       .  A
C1345      C1350   1.411       .  A
C1346      C1347   1.396   1_655  A
C1346      H1351   1.083       .  S
C1347      C1348   1.415       .  A
C1347      O1352   1.372       .  S
C1348      C1349   1.403       .  A
C1349      C1350   1.396   1_455  A
C1349      H1353   1.083       .  S
C1350      O1354   1.373       .  S
O1352      H1356   0.993       .  S
O1354      H1355   0.992       .  S
C1357      C1358   1.406       .  A
C1357      C1362   1.409       .  A
C1358      C1359   1.397       .  A
C1358      H1363   1.083       .  S
C1359      C1360   1.412       .  A
C1359      O1364   1.372       .  S
C1360      C1361   1.405       .  A
C1361      C1362   1.393       .  A
C1361      H1365   1.083       .  S
C1362      O1366   1.372       .  S
O1364      H1368   0.990       .  S
O1366      H1367   0.992       .  S
