geometry optimzed in LAMMPS
_audit_creation_date              2020-11-30 
_audit_creation_method            'lammps2cif' 
_symmetry_space_group_name_H-M    'P1' 
_symmetry_Int_Tables_number       1 
_symmetry_cell_setting            triclinic 
loop_ 
_symmetry_equiv_pos_as_xyz 
  x,y,z 
_cell_length_a                    27.931629238415912 
_cell_length_b                    31.375193939502218 
_cell_length_c                    51.09163406264549 
_cell_angle_alpha                 87.93793861514726 
_cell_angle_beta                  89.56222115124946 
_cell_angle_gamma                 89.84677027018365 
loop_ 
_atom_site_label 
_atom_site_type_symbol 
_atom_site_fract_x 
_atom_site_fract_y 
_atom_site_fract_z 
_atom_site_charge 
C1          C  0.83570164  0.40420693  0.33438407     0.42470
N2          N  0.79659159  0.37271277  0.30461890     0.01360
C3          C  0.78332621  0.40597736  0.17083357    -0.06520
H4          H  0.67974924  0.50639314  0.22290425     0.06850
C5          C  0.58210425  0.38943392  0.25740226    -0.06870
Co6        Co  0.81600765  0.40481157  0.25007819     0.74180
N7          N  0.73247967  0.45863373  0.23333854    -0.26050
Co8        Co  0.70842353  0.40516002  0.21478202     0.74070
C9          C  0.57412214  0.43283418  0.24656111     0.42570
N10         N  0.66650786  0.32759519  0.29367870     0.00970
N11         N  0.64275893  0.41012103  0.23384634     0.01080
N12         N  0.85225093  0.40981279  0.19343033    -0.46900
H13         H  0.86995504  0.45025971  0.30324345     0.06840
N14         N  0.77273165  0.45947558  0.24684525     0.01360
N15         N  0.68478253  0.34924928  0.19753197     0.01100
C16         C  0.66453711  0.30089478  0.17086501     0.42710
N17         N  0.70750744  0.32474790  0.30629508    -0.25510
C18         C  0.89937121  0.33954366  0.24355681    -0.06430
N19         N  0.80600636  0.37198326  0.32978131    -0.46610
N20         N  0.68308463  0.34067078  0.17227336    -0.46830
C21         C  0.90947679  0.29608282  0.25339676     0.42480
N22         N  0.81509037  0.40309037  0.20928719     0.01350
N23         N  0.74855781  0.26673265  0.26889045    -0.25530
N24         N  0.81744839  0.40435021  0.29137799    -0.26020
N25         N  0.70689910  0.26620909  0.25697015     0.00990
H26         H  0.80352697  0.21955779  0.27611665     0.06880
H27         H  0.63773382  0.25672034  0.20503484     0.06920
N28         N  0.77434644  0.40167822  0.19644481    -0.26070
N29         N  0.62575358  0.37830467  0.24860459    -0.25680
N30         N  0.83945343  0.31533573  0.26677887     0.01360
C31         C  0.74466850  0.52282142  0.24767571     0.42750
C32         C  0.69927942  0.33118005  0.33168890    -0.06930
N33         N  0.66782954  0.31781511  0.21267954    -0.25680
H34         H  0.55876160  0.36954594  0.26957807     0.06900
N35         N  0.78202093  0.49798246  0.25537417    -0.46900
H36         H  0.72620439  0.33310177  0.34667964     0.06890
C37         C  0.73612808  0.20389458  0.25315279     0.42590
C38         C  0.84413425  0.42574331  0.30851572    -0.06430
Co39       Co  0.77311262  0.31925134  0.28684924     0.73820
N40         N  0.63019585  0.33786719  0.30914357    -0.46620
C41         C  0.83501034  0.41130192  0.16876031     0.42850
N42         N  0.87066400  0.28325787  0.26767311    -0.46610
Co43       Co  0.66554437  0.32186456  0.25319694     0.73890
C44         C  0.65395040  0.28605550  0.19772836    -0.06940
C45         C  0.71215785  0.49713699  0.23308375    -0.06500
N46         N  0.85560441  0.34857111  0.25284634    -0.26030
N47         N  0.61318609  0.44317645  0.23206327    -0.46790
H48         H  0.75625160  0.41037976  0.15597102     0.06860
C49         C  0.76959142  0.22874887  0.26754519    -0.06910
Cl50       Cl  0.74089263  0.36293698  0.25118002    -0.49910
C51         C  0.64822531  0.33970331  0.33354112     0.42620
H52         H  0.92151157  0.36119415  0.23185896     0.06830
N53         N  0.69744616  0.22838533  0.24750269    -0.46630
C54         C  0.58351655  0.94119065  0.24593646     0.42470
N55         N  0.64802650  0.91485139  0.23022915     0.01360
C56         C  0.76533932  0.72893348  0.26462753    -0.06520
H57         H  0.73170309  0.83503486  0.34197687     0.06850
C58         C  0.84984149  0.92468954  0.30287153    -0.06870
Co59       Co  0.66681002  0.82606145  0.24952104     0.74180
N60         N  0.71025763  0.82799008  0.30200903    -0.26050
Co61       Co  0.77426705  0.82056583  0.28166754     0.74070
C62         C  0.83980588  0.90387633  0.32882473     0.42570
N63         N  0.77948534  0.96075931  0.24209676     0.00970
N64         N  0.80063524  0.87299127  0.29889896     0.01080
N65         N  0.69217791  0.73037326  0.24569337    -0.46900
H66         H  0.56657476  0.87857882  0.26926252     0.06840
N67         N  0.66877149  0.83192210  0.29004070     0.01360
N68         N  0.83845238  0.81491528  0.26063995     0.01100
C69         C  0.90683282  0.79288375  0.24747598     0.42710
N70         N  0.73874534  0.96173822  0.22896122    -0.25510
C71         C  0.65873986  0.78799143  0.19497400    -0.06430
N72         N  0.62107790  0.94962613  0.22993899    -0.46610
N73         N  0.86793148  0.78185568  0.26194533    -0.46830
C74         C  0.67343002  0.79978141  0.16826238     0.42480
N75         N  0.70480478  0.76862208  0.25345138     0.01350
N76         N  0.77681390  0.90618907  0.19060365    -0.25530
N77         N  0.63046618  0.88376620  0.24532938    -0.26020
N78         N  0.81824625  0.90715060  0.20283735     0.00990
H79         H  0.75352008  0.92937934  0.15296515     0.06880
H80         H  0.92221111  0.85689468  0.22521697     0.06920
N81         N  0.74699753  0.76812253  0.26472783    -0.26070
N82         N  0.82283686  0.90377787  0.28559533    -0.25680
N83         N  0.68762891  0.85204453  0.19349859     0.01360
C84         C  0.65311575  0.84393770  0.33027581     0.42750
C85         C  0.72020198  0.00091720  0.22969687    -0.06930
N86         N  0.85590526  0.84719001  0.24625168    -0.25680
H87         H  0.87599455  0.94900313  0.29776455     0.06900
N88         N  0.63353541  0.84259183  0.30616165    -0.46900
H89         H  0.68767345  0.01185555  0.22026426     0.06890
C90         C  0.83272693  0.93296092  0.16369955     0.42590
C91         C  0.58926523  0.89716473  0.25598004    -0.06430
Co92       Co  0.71231491  0.90866076  0.21026494     0.73820
N93         N  0.79076050  0.99816699  0.25150815    -0.46620
C94         C  0.72922095  0.70420334  0.25198265     0.42850
N95         N  0.69081886  0.84021921  0.16876288    -0.46610
Co96       Co  0.82005983  0.90518049  0.24414064     0.73890
C97         C  0.89893004  0.83625663  0.23692226    -0.06940
C98         C  0.70376179  0.83422280  0.32749961    -0.06500
N99         N  0.66932384  0.82167381  0.20906798    -0.26030
N100        N  0.80942600  0.87231519  0.32411629    -0.46790
H101        H  0.79876219  0.71877247  0.27342268     0.06860
C102        C  0.78270755  0.92036660  0.16581320    -0.06910
Cl103      Cl  0.74353748  0.86511145  0.24627943    -0.49910
C104        C  0.75430987  0.02441621  0.24473951     0.42620
H105        H  0.64467681  0.75820405  0.20294353     0.06830
N106        N  0.85241620  0.92386962  0.18745702    -0.46630
C107        C  0.08784712  0.19949520  0.24979011     0.42470
N108        N  0.13917897  0.14797325  0.25072274     0.01360
C109        C  0.36979996  0.14505850  0.29914417    -0.06520
H110        H  0.33621842  0.26155320  0.21872635     0.06850
C111        C  0.30143039  0.14067095  0.16537454    -0.06870
Co112      Co  0.22827344  0.17178033  0.27983985     0.74180
N113        N  0.29639108  0.21737590  0.24391804    -0.26050
Co114      Co  0.33128933  0.15883464  0.24323531     0.74070
C115        C  0.32394313  0.18315867  0.16320447     0.42570
N116        N  0.21109127  0.08353965  0.19620074     0.00970
N117        N  0.32519314  0.15991892  0.20319286     0.01080
N118        N  0.30169932  0.15160166  0.32273346    -0.46900
H119        H  0.13957099  0.24347009  0.27092269     0.06840
N120        N  0.25621171  0.22117412  0.25723228     0.01360
N121        N  0.36492566  0.09924828  0.24197206     0.01100
C122        C  0.41404261  0.04653139  0.24470853     0.42710
N123        N  0.17059219  0.08482737  0.20961688    -0.25510
C124        C  0.19320329  0.12375926  0.32764311    -0.06430
N125        N  0.09473863  0.15818484  0.24368588    -0.46610
N126        N  0.40833384  0.08813132  0.25027255    -0.46830
C127        C  0.15777459  0.09158690  0.33365806     0.42480
N128        N  0.29463794  0.16149634  0.29765360     0.01350
N129        N  0.20877918  0.02844781  0.25058465    -0.25530
N130        N  0.16140383  0.17977641  0.26177917    -0.26020
N131        N  0.24834187  0.02460066  0.23634423     0.00990
H132        H  0.16634796  0.98236552  0.27311397     0.06880
H133        H  0.36265649  0.00328475  0.22280592     0.06920
N134        N  0.33371695  0.15678045  0.28347434    -0.26070
N135        N  0.30351101  0.12910875  0.19107753    -0.25680
N136        N  0.17462907  0.09155096  0.29230275     0.01360
C137        C  0.26543288  0.28211761  0.23809452     0.42750
C138        C  0.13459585  0.07771713  0.19283035    -0.06930
N139        N  0.34280187  0.06783830  0.23073133    -0.25680
H140        H  0.28497203  0.12240161  0.15033443     0.06900
N141        N  0.23658100  0.25925116  0.25433772    -0.46900
H142        H  0.09751331  0.07335039  0.19846498     0.06890
C143        C  0.23554977  0.96086185  0.25224183     0.42590
C144        C  0.13208577  0.21366884  0.26179257    -0.06430
Co145      Co  0.17204447  0.08749494  0.25087725     0.73820
N146        N  0.20509423  0.07604131  0.17133275    -0.46620
C147        C  0.34826330  0.14051861  0.32519532     0.42850
N148        N  0.14629904  0.07347226  0.31066303    -0.46610
Co149      Co  0.27666181  0.07589716  0.21326747     0.73890
C150        C  0.37085676  0.03327767  0.23150661    -0.06940
C151        C  0.30587111  0.25485215  0.23142404    -0.06500
N152        N  0.19998561  0.12256032  0.30197822    -0.26030
N153        N  0.33792394  0.19222501  0.18746401    -0.46790
H154        H  0.40553499  0.13751063  0.29255831     0.06860
C155        C  0.19767043  0.98968431  0.26123408    -0.06910
Cl156      Cl  0.25175286  0.12310153  0.24686091    -0.49910
C157        C  0.15811805  0.07170788  0.16718370     0.42620
H158        H  0.20486601  0.14932977  0.33972758     0.06830
N159        N  0.26511261  0.98503657  0.23685237    -0.46630
C160        C  0.40109462  0.53578761  0.25399009     0.42470
N161        N  0.35251642  0.58935531  0.25560932     0.01360
C162        C  0.12111539  0.59147686  0.30394794    -0.06520
H163        H  0.15723947  0.48118225  0.22330203     0.06850
C164        C  0.19872506  0.60117437  0.16909887    -0.06870
Co165      Co  0.26219565  0.56412792  0.28471618     0.74180
N166        N  0.19551062  0.52168474  0.24927198    -0.26050
Co167      Co  0.16152843  0.58062886  0.24721677     0.74070
C168        C  0.17583622  0.55887514  0.16796428     0.42570
N169        N  0.28630707  0.65859846  0.19897069     0.00970
N170        N  0.17012037  0.58174912  0.20702832     0.01080
N171        N  0.18845169  0.57899898  0.32705450    -0.46900
H172        H  0.34779423  0.49226771  0.27685445     0.06840
N173        N  0.23503599  0.51615748  0.26282646     0.01360
N174        N  0.12923047  0.64018261  0.24417558     0.01100
C175        C  0.07954280  0.69219590  0.24447247     0.42710
N176        N  0.32517838  0.65509075  0.21340090    -0.25510
C177        C  0.29300426  0.61224780  0.33178772    -0.06430
N178        N  0.39603625  0.57800775  0.24757041    -0.46610
N179        N  0.08546932  0.65073702  0.25183704    -0.46830
C180        C  0.32608611  0.64616160  0.33711779     0.42480
N181        N  0.19547812  0.57268350  0.30192277     0.01350
N182        N  0.28323554  0.70957500  0.25249372    -0.25530
N183        N  0.32933566  0.55725135  0.26729820    -0.26020
N184        N  0.24475912  0.71444506  0.23766301     0.00990
H185        H  0.32159745  0.75344931  0.27643054     0.06880
H186        H  0.13164341  0.73656537  0.22151912     0.06920
N187        N  0.15689608  0.58034409  0.28783317    -0.26070
N188        N  0.19364317  0.61249837  0.19425724    -0.25680
N189        N  0.31378531  0.64465513  0.29544608     0.01360
C190        C  0.22635990  0.45770823  0.24339374     0.42750
C191        C  0.36354824  0.66060570  0.19756013    -0.06930
N192        N  0.15163924  0.67186369  0.23178436    -0.25680
H193        H  0.21760046  0.61947451  0.15398836     0.06900
N194        N  0.25476126  0.47835814  0.25985409    -0.46900
H195        H  0.40032505  0.66224689  0.20390574     0.06890
C196        C  0.25343276  0.77587737  0.25451363     0.42590
C197        C  0.35701224  0.52246066  0.26734760    -0.06430
Co198      Co  0.32000739  0.65034664  0.25429615     0.73820
N199        N  0.29579410  0.66653707  0.17396944    -0.46620
C200        C  0.14238727  0.59060813  0.33000652     0.42850
N201        N  0.33868088  0.66439469  0.31348197    -0.46610
Co202      Co  0.21891470  0.66483060  0.21516829     0.73890
C203        C  0.12326820  0.70620545  0.23113632    -0.06940
C204        C  0.18648529  0.48590464  0.23660252    -0.06500
N205        N  0.28899438  0.61267736  0.30591941    -0.26030
N206        N  0.15894762  0.54978824  0.19220523    -0.46790
H207        H  0.08598844  0.60239438  0.29796474     0.06860
C208        C  0.29199405  0.74706963  0.26363575    -0.06910
Cl209      Cl  0.24078082  0.61515281  0.25035347    -0.49910
C210        C  0.34366259  0.66783619  0.17125621     0.42620
H211        H  0.28081021  0.58664368  0.34492092     0.06830
N212        N  0.22616488  0.75331906  0.23833622    -0.46630
C213        C  0.60780592  0.21756971  0.07672004     0.42470
N214        N  0.55553124  0.20042567  0.04832485     0.01360
C215        C  0.56511005  0.22488987  0.91484548    -0.06520
H216        H  0.62839698  0.36085491  0.97195819     0.06850
C217        C  0.46438312  0.37177910  0.00703940    -0.06870
Co218      Co  0.59462630  0.20399578  0.99387295     0.74180
N219        N  0.60799117  0.29511632  0.97880377    -0.26050
Co220      Co  0.54292823  0.28947789  0.96017486     0.74070
C221        C  0.50360046  0.40043977  0.99902847     0.42570
N222        N  0.43571608  0.27127263  0.03719579     0.00970
N223        N  0.51481777  0.33947411  0.98207979     0.01080
N224        N  0.60002284  0.17149529  0.93854922    -0.46900
H225        H  0.66669269  0.22528428  0.04533487     0.06840
N226        N  0.62849948  0.26268501  0.99131558     0.01360
N227        N  0.47812858  0.28638395  0.94152203     0.01100
C228        C  0.42683700  0.31372257  0.91449279     0.42710
N229        N  0.46034118  0.24058312  0.04910082    -0.25510
C230        C  0.56895795  0.10852591  0.98495758    -0.06430
N231        N  0.56124796  0.20771824  0.07351012    -0.46610
N232        N  0.47316139  0.30353528  0.91772506    -0.46830
C233        C  0.52840625  0.08112273  0.99232647     0.42480
N234        N  0.58963101  0.20418089  0.95324778     0.01350
N235        N  0.42507977  0.18453166  0.00998193    -0.25530
N236        N  0.59544278  0.20577767  0.03464196    -0.26020
N237        N  0.40411939  0.21629321  0.99667571     0.00990
H238        H  0.40325185  0.12081948  0.02113902     0.06880
H239        H  0.36699877  0.30861350  0.94579224     0.06920
N240        N  0.56891956  0.23606149  0.94003530    -0.26070
N241        N  0.47453441  0.33478774  0.99574695    -0.25680
N242        N  0.51899211  0.14171394  0.00942152     0.01360
C243        C  0.67666409  0.31479344  0.99588548     0.42750
C244        C  0.44896537  0.23850986  0.07440155    -0.06930
N245        N  0.43744541  0.28436213  0.95484454    -0.25680
H246        H  0.43335818  0.37777325  0.01916030     0.06900
N247        N  0.67011372  0.27287750  0.00163932    -0.46900
H248        H  0.45832834  0.21221461  0.08768824     0.06890
C249        C  0.35356008  0.16434886  0.99621018     0.42590
C250        C  0.63051239  0.21668404  0.05094399    -0.06430
Co251      Co  0.49020800  0.19140976  0.02947195     0.73820
N252        N  0.40363965  0.28795633  0.05326971    -0.46620
C253        C  0.58554959  0.18154588  0.91399001     0.42850
N254        N  0.49924106  0.10379222  0.00760964    -0.46610
Co255      Co  0.43687210  0.27692780  0.99600643     0.73890
C256        C  0.40272810  0.30068993  0.93924299    -0.06940
C257        C  0.63574066  0.32957673  0.98059979    -0.06500
N258        N  0.55941731  0.14565844  0.99622565    -0.26030
N259        N  0.53321046  0.37818814  0.98356542    -0.46790
H260        H  0.54801659  0.24376514  0.89943719     0.06860
C261        C  0.39619331  0.15057349  0.01053535    -0.06910
Cl262      Cl  0.51590368  0.24049848  0.99479236    -0.49910
C263        C  0.41067036  0.26920836  0.07731876     0.42620
H264        H  0.59939159  0.10225709  0.97249940     0.06830
N265        N  0.36083646  0.20573113  0.98840918    -0.46630
C266        C  0.41738828  0.75953531  0.07981468     0.42470
N267        N  0.46837070  0.78039025  0.05041593     0.01360
C268        C  0.44939272  0.76020687  0.91780704    -0.06520
H269        H  0.39639218  0.62508439  0.97313540     0.06850
C270        C  0.56408310  0.61173498  0.01040592    -0.06870
Co271      Co  0.42835998  0.77837577  0.99694119     0.74180
N272        N  0.41738989  0.68809142  0.98332268    -0.26050
Co273      Co  0.48231541  0.69686741  0.96421802     0.74070
C274        C  0.52549787  0.58320976  0.00245642     0.42570
N275        N  0.58970204  0.71277636  0.04030800     0.00970
N276        N  0.51241844  0.64638372  0.98643059     0.01080
N277        N  0.41372357  0.81093257  0.94153112    -0.46900
H278        H  0.35806221  0.75372419  0.04897990     0.06840
N279        N  0.39595604  0.71868983  0.99590287     0.01360
N280        N  0.54693572  0.70338662  0.94478395     0.01100
C281        C  0.59831532  0.68047989  0.91690574     0.42710
N282        N  0.56351896  0.74229696  0.05123498    -0.25510
C283        C  0.45101665  0.87553656  0.98543822    -0.06430
N284        N  0.46346335  0.77099767  0.07576777    -0.46610
N285        N  0.55182674  0.68921515  0.92088276    -0.46830
C286        C  0.49103339  0.90330729  0.99180058     0.42480
N287        N  0.43152274  0.78007920  0.95668589     0.01350
N288        N  0.59797477  0.80113602  0.01071083    -0.25530
N289        N  0.42846405  0.77500854  0.03742853    -0.26020
N290        N  0.62046618  0.77062903  0.99823190     0.00990
H291        H  0.61758399  0.86421466  0.02126452     0.06880
H292        H  0.65886730  0.68342076  0.94728173     0.06920
N293        N  0.45266184  0.74975949  0.94354580    -0.26070
N294        N  0.55271488  0.65026519  0.99967261    -0.25680
N295        N  0.50254502  0.84165583  0.00964990     0.01360
C296        C  0.34537948  0.66706395  0.99690618     0.42750
C297        C  0.57279179  0.74328958  0.07660958    -0.06930
N298        N  0.58788804  0.70480301  0.95756006    -0.25680
H299        H  0.59574914  0.60458528  0.02179903     0.06900
N300        N  0.35239256  0.70768919  0.00413544    -0.46900
H301        H  0.56141207  0.76849307  0.08918719     0.06890
C302        C  0.67072580  0.82298810  0.99845541     0.42590
C303        C  0.39395775  0.76258877  0.05430743    -0.06430
Co304      Co  0.53282394  0.79173180  0.03060516     0.73820
N305        N  0.62121152  0.69609109  0.05729015    -0.46620
C306        C  0.42338837  0.80110232  0.91668957     0.42850
N307        N  0.52113132  0.88013483  0.00697071    -0.46610
Co308      Co  0.58899745  0.70922191  0.99887953     0.73890
C309        C  0.62263841  0.69098987  0.94138805    -0.06940
C310        C  0.38860424  0.65416550  0.98307126    -0.06500
N311        N  0.46185789  0.83770435  0.99720324    -0.26030
N312        N  0.49527673  0.60715716  0.98766900    -0.46790
H313        H  0.46291093  0.74138386  0.90203217     0.06860
C314        C  0.62630687  0.83533083  0.01135882    -0.06910
Cl315      Cl  0.50862612  0.74390559  0.99746590    -0.49910
C316        C  0.61136575  0.71328041  0.08087182     0.42620
H317        H  0.42011149  0.88221245  0.97334803     0.06830
N318        N  0.66454327  0.78224162  0.99085622    -0.46630
C319        C  0.10306445  0.97445600  0.07814641     0.42470
N320        N  0.05318671  0.95256626  0.04994231     0.01360
C321        C  0.06256358  0.97011575  0.91628784    -0.06520
H322        H  0.12661982  0.10813165  0.96427253     0.06850
C323        C  0.96418525  0.12275863  0.00701987    -0.06870
Co324      Co  0.09181325  0.95461543  0.99555482     0.74180
N325        N  0.10504366  0.04493047  0.97703783    -0.26050
Co326      Co  0.03838674  0.03726238  0.96014382     0.74070
C327        C  0.00290951  0.15109604  0.99742230     0.42570
N328        N  0.93649996  0.02503857  0.04008184     0.00970
N329        N  0.01124261  0.08907416  0.98090335     0.01080
N330        N  0.09883647  0.91914991  0.94139560    -0.46900
H331        H  0.16210405  0.98296030  0.04637569     0.06840
N332        N  0.12627221  0.01399733  0.99068233     0.01360
N333        N  0.97197714  0.03048787  0.94345250     0.01100
C334        C  0.91603745  0.03893852  0.91513693     0.42710
N335        N  0.96082835  0.99380690  0.05150490    -0.25510
C336        C  0.06398829  0.85725437  0.98938237    -0.06430
N337        N  0.05776400  0.96170758  0.07478660    -0.46610
N338        N  0.96376798  0.03726125  0.91824591    -0.46830
C339        C  0.02363515  0.83070388  0.99885386     0.42480
N340        N  0.08610762  0.95208805  0.95527657     0.01350
N341        N  0.92159242  0.93578409  0.01384589    -0.25530
N342        N  0.09289049  0.95876427  0.03625042    -0.26020
N343        N  0.90051660  0.96780993  0.00094945     0.00990
H344        H  0.89933385  0.87120704  0.02354425     0.06880
H345        H  0.85808729  0.03749683  0.94745981     0.06920
N346        N  0.06460941  0.98262820  0.94127982    -0.26070
N347        N  0.97243262  0.08527367  0.99584724    -0.25680
N348        N  0.01578074  0.89339324  0.01310221     0.01360
C349        C  0.17745276  0.06554579  0.98913560     0.42750
C350        C  0.95566171  0.99490682  0.07725339    -0.06930
N351        N  0.93236707  0.02885896  0.95766157    -0.25680
H352        H  0.93445847  0.12890966  0.01998928     0.06900
N353        N  0.16999841  0.02480171  0.99809951    -0.46900
H354        H  0.96707289  0.96985554  0.09094246     0.06890
C355        C  0.85086862  0.91574406  0.99876982     0.42590
C356        C  0.12685074  0.97233375  0.05244698    -0.06430
Co357      Co  0.98794318  0.94341833  0.03222102     0.73820
N358        N  0.91009361  0.04555274  0.05748585    -0.46620
C359        C  0.08527726  0.92757895  0.91653472     0.42850
N360        N  0.99583444  0.85554587  0.01334730    -0.46610
Co361      Co  0.93425820  0.02753657  0.99863729     0.73890
C362        C  0.89504070  0.03394638  0.94143021    -0.06940
C363        C  0.13424586  0.07870601  0.97511725    -0.06500
N364        N  0.05580107  0.89585439  0.99941018    -0.26030
N365        N  0.03025368  0.12770810  0.98130710    -0.46790
H366        H  0.04643383  0.98804811  0.90016579     0.06860
C367        C  0.89267526  0.90167758  0.01369464    -0.06910
Cl368      Cl  0.01308741  0.99084564  0.99659631    -0.49910
C369        C  0.92178991  0.02868299  0.08162074     0.42620
H370        H  0.09385454  0.84902706  0.97694286     0.06830
N371        N  0.85762793  0.95747085  0.99207795    -0.46630
C372        C  0.91042295  0.51242836  0.08216714     0.42470
N373        N  0.96296985  0.53269303  0.05359662     0.01360
C374        C  0.94985567  0.50951165  0.92110653    -0.06520
H375        H  0.89782724  0.37265035  0.98018682     0.06850
C376        C  0.06376771  0.36255564  0.01417594    -0.06870
Co377      Co  0.92531391  0.52886633  0.99971327     0.74180
N378        N  0.91630475  0.43771477  0.98734514    -0.26050
Co379      Co  0.98116125  0.44704448  0.96819370     0.74070
C380        C  0.02631317  0.33347131  0.00570540     0.42570
N381        N  0.08414308  0.46390564  0.04543978     0.00970
N382        N  0.01144930  0.39666469  0.99038112     0.01080
N383        N  0.91292416  0.56036451  0.94408156    -0.46900
H384        H  0.85269116  0.50648205  0.05064023     0.06840
N385        N  0.89404507  0.46866982  0.99926800     0.01360
N386        N  0.04634698  0.45633726  0.94982824     0.01100
C387        C  0.10133659  0.44944966  0.92080152     0.42710
N388        N  0.05809624  0.49383817  0.05611855    -0.25510
C389        C  0.94913471  0.62495772  0.98659609    -0.06430
N390        N  0.95674964  0.52358793  0.07888443    -0.46610
N391        N  0.05373649  0.44987407  0.92476074    -0.46830
C392        C  0.98959245  0.65251557  0.99210755     0.42480
N393        N  0.92947905  0.52944824  0.95959918     0.01350
N394        N  0.09396926  0.55259847  0.01596607    -0.25530
N395        N  0.92375751  0.52720694  0.04003933    -0.26020
N396        N  0.11625300  0.52170903  0.00388778     0.00990
H397        H  0.11411223  0.61618017  0.02554428     0.06880
H398        H  0.16061906  0.45405583  0.95181980     0.06920
N399        N  0.95136382  0.49909432  0.94692503    -0.26070
N400        N  0.05114853  0.40118211  0.00401725    -0.25680
N401        N  0.99917187  0.59251998  0.01238608     0.01360
C402        C  0.84671292  0.41516761  0.00332050     0.42750
C403        C  0.06709349  0.49488018  0.08154141    -0.06930
N404        N  0.08639021  0.45967803  0.96314189    -0.25680
H405        H  0.09573946  0.35551682  0.02534301     0.06900
N406        N  0.85161240  0.45679505  0.00874203    -0.46900
H407        H  0.05593205  0.52033145  0.09398788     0.06890
C408        C  0.16604576  0.57392624  0.00256779     0.42590
C409        C  0.88832005  0.51544704  0.05639961    -0.06430
Co410      Co  0.02826406  0.54339293  0.03477323     0.73820
N411        N  0.11527903  0.44713509  0.06253556    -0.46620
C412        C  0.92433653  0.55061262  0.91944998     0.42850
N413        N  0.01824592  0.63071126  0.00881146    -0.46610
Co414      Co  0.08561061  0.46094955  0.00415655     0.73890
C415        C  0.12329796  0.45584381  0.94638737    -0.06940
C416        C  0.88939646  0.40260323  0.98900527    -0.06500
N417        N  0.95904002  0.58795733  0.99948563    -0.26030
N418        N  0.99585251  0.35686523  0.99078447    -0.46790
H419        H  0.96501421  0.49095663  0.90564120     0.06860
C420        C  0.12236214  0.58684273  0.01598916    -0.06910
Cl421      Cl  0.00532598  0.49469442  0.00173159    -0.49910
C422        C  0.10546520  0.46456542  0.08599762     0.42620
H423        H  0.91847542  0.63129588  0.97429424     0.06830
N424        N  0.15978754  0.53296319  0.99579591    -0.46630
C425        C  0.65214205  0.09344064  0.82736920     0.42470
N426        N  0.70048685  0.12250917  0.79905052     0.01360
C427        C  0.72307274  0.10126883  0.66506635    -0.06520
H428        H  0.82034535  0.99807184  0.71941257     0.06850
C429        C  0.91886478  0.10767069  0.75280348    -0.06870
Co430      Co  0.68373069  0.09892432  0.74376466     0.74180
N431        N  0.76700426  0.04532214  0.72806361    -0.26050
Co432      Co  0.79347005  0.10090308  0.70983600     0.74070
C433        C  0.92686746  0.06646121  0.74062139     0.42570
N434        N  0.83341377  0.16487014  0.79022348     0.00970
N435        N  0.85836246  0.09202004  0.72897002     0.01080
N436        N  0.65248192  0.09511836  0.68649084    -0.46900
H437        H  0.61658913  0.05481075  0.79509275     0.06840
N438        N  0.72583183  0.04369918  0.74116666     0.01360
N439        N  0.81834572  0.15967766  0.69373007     0.01100
C440        C  0.83518780  0.21445877  0.66874035     0.42710
N441        N  0.79154518  0.16629909  0.80230749    -0.25510
C442        C  0.60430850  0.16858789  0.73691976    -0.06430
N443        N  0.68701366  0.12215092  0.82374321    -0.46610
N444        N  0.81726753  0.17424183  0.66897362    -0.46830
C445        C  0.59594946  0.21070943  0.74749254     0.42480
N446        N  0.68749150  0.10442455  0.70272593     0.01350
N447        N  0.75584756  0.23197254  0.76610860    -0.25530
N448        N  0.67777287  0.09456746  0.78514926    -0.26020
N449        N  0.79801092  0.23328827  0.75449032     0.00990
H450        H  0.70374429  0.27943045  0.77569956     0.06880
H451        H  0.86207884  0.25198054  0.70359073     0.06920
N452        N  0.72924786  0.10695738  0.69056982    -0.26070
N453        N  0.87548193  0.12083291  0.74443912    -0.25680
N454        N  0.66379629  0.18654273  0.76117761     0.01360
C455        C  0.75365590  0.98025435  0.74380825     0.42750
C456        C  0.79741348  0.15486683  0.82752274    -0.06930
N457        N  0.83595912  0.18795263  0.70955369    -0.25680
H458        H  0.94224960  0.12527920  0.76523867     0.06900
N459        N  0.71592662  0.00473751  0.75056042    -0.46900
H460        H  0.76924272  0.15073817  0.84200023     0.06890
C461        C  0.77269611  0.29762751  0.75318802     0.42590
C462        C  0.64525416  0.07510194  0.80133589    -0.06430
Co463      Co  0.72793940  0.17724618  0.78229114     0.73820
N464        N  0.86816390  0.15113830  0.80595305    -0.46620
C465        C  0.67219440  0.09262432  0.66226633     0.42850
N466        N  0.63426827  0.21961289  0.76236118    -0.46610
Co467      Co  0.83705202  0.17719765  0.74988407     0.73890
C468        C  0.84797685  0.22320469  0.69560496    -0.06940
C469        C  0.78704315  0.00669692  0.72877937    -0.06500
N470        N  0.64697509  0.15631736  0.74642546    -0.26030
N471        N  0.88777729  0.05930179  0.72610325    -0.46790
H472        H  0.75189621  0.09701661  0.65115076     0.06860
C473        C  0.73721467  0.27098488  0.76644848    -0.06910
Cl474      Cl  0.76047366  0.13846313  0.74641817    -0.49910
C475        C  0.84799922  0.14528179  0.82994294     0.42620
H476        H  0.58157080  0.14970277  0.72485170     0.06830
N477        N  0.80998246  0.27253422  0.74656082    -0.46630
C478        C  0.67452158  0.58875408  0.83345518     0.42470
N479        N  0.71164557  0.62312229  0.80240879     0.01360
C480        C  0.72793707  0.59784981  0.66852354    -0.06520
H481        H  0.82863110  0.49898177  0.72037951     0.06850
C482        C  0.92283699  0.60919043  0.75725642    -0.06870
Co483      Co  0.69193041  0.59678188  0.74797960     0.74180
N484        N  0.77596024  0.54556566  0.73106713    -0.26050
Co485      Co  0.79985559  0.60166885  0.71232506     0.74070
C486        C  0.93021562  0.56688712  0.74625990     0.42570
N487        N  0.84068556  0.66968408  0.79146360     0.00970
N488        N  0.86493859  0.59470294  0.73130982     0.01080
N489        N  0.65861490  0.58881207  0.69090663    -0.46900
H490        H  0.63775648  0.54613015  0.80337593     0.06840
N491        N  0.73587221  0.54318495  0.74507557     0.01360
N492        N  0.82285652  0.66060554  0.69556621     0.01100
C493        C  0.84039694  0.71486748  0.67033668     0.42710
N494        N  0.79955992  0.67094728  0.80421037    -0.25510
C495        C  0.60939197  0.66355750  0.74130606    -0.06430
N496        N  0.70414806  0.62106339  0.82778350    -0.46610
N497        N  0.82250763  0.67458012  0.67066937    -0.46830
C498        C  0.59944161  0.70588582  0.75144591     0.42480
N499        N  0.69342162  0.60101142  0.70656245     0.01350
N500        N  0.75896609  0.73335541  0.76720471    -0.25530
N501        N  0.68976052  0.59323053  0.78969324    -0.26020
N502        N  0.80094374  0.73563478  0.75537495     0.00990
H503        H  0.70425296  0.77930111  0.77565717     0.06880
H504        H  0.86512712  0.75341364  0.70521050     0.06920
N505        N  0.73456168  0.60523848  0.69380537    -0.26070
N506        N  0.88134661  0.62370955  0.74686120    -0.25680
N507        N  0.66882841  0.68417669  0.76473946     0.01360
C508        C  0.76437100  0.47994785  0.74647939     0.42750
C509        C  0.80750219  0.66144249  0.82953324    -0.06930
N510        N  0.83991933  0.68935693  0.71119885    -0.25680
H511        H  0.94484566  0.62622603  0.77066372     0.06900
N512        N  0.72702486  0.50398612  0.75426154    -0.46900
H513        H  0.78049580  0.65774594  0.84469348     0.06890
C514        C  0.77205892  0.79876860  0.75268689     0.42590
C515        C  0.66371210  0.57032357  0.80774920    -0.06430
Co516      Co  0.73455522  0.67841272  0.78474911     0.73820
N517        N  0.87688175  0.65761649  0.80662767    -0.46620
C518        C  0.67778960  0.58607414  0.66653581     0.42850
N519        N  0.63791030  0.71619069  0.76589038    -0.46610
Co520      Co  0.84203545  0.68006793  0.75135088     0.73890
C521        C  0.85176409  0.72441779  0.69718310    -0.06940
C522        C  0.79635554  0.50709259  0.73091850    -0.06500
N523        N  0.65278409  0.65293872  0.75057307    -0.26030
N524        N  0.89286988  0.56069500  0.73032311    -0.46790
H525        H  0.75648684  0.59436424  0.65435645     0.06860
C526        C  0.73814257  0.77154384  0.76661819    -0.06910
Cl527      Cl  0.76675738  0.63912142  0.74891144    -0.49910
C528        C  0.85847941  0.65230385  0.83098888     0.42620
H529        H  0.58733603  0.64303688  0.72993913     0.06830
N530        N  0.81076080  0.77495134  0.74656218    -0.46630
C531        C  0.35122608  0.41748676  0.83381631     0.42470
N532        N  0.31463709  0.38664509  0.80298762     0.01360
C533        C  0.28501298  0.43698907  0.67165161    -0.06520
H534        H  0.19054482  0.52594327  0.73061923     0.06850
C535        C  0.09676786  0.40374724  0.76343750    -0.06870
Co536      Co  0.32978365  0.42322516  0.74909831     0.74180
N537        N  0.24400740  0.47727003  0.73741594    -0.26050
Co538      Co  0.21851140  0.42460455  0.71772986     0.74070
C539        C  0.08829512  0.44799970  0.75421640     0.42570
N540        N  0.18545952  0.33937973  0.79519647     0.00970
N541        N  0.15539515  0.42640651  0.73899416     0.01080
N542        N  0.35683199  0.44236699  0.69112382    -0.46900
H543        H  0.38469654  0.46646092  0.80395998     0.06840
N544        N  0.28579057  0.47709221  0.74949334     0.01360
N545        N  0.19417017  0.36952871  0.69939259     0.01100
C546        C  0.17130671  0.32318954  0.67220557     0.42710
N547        N  0.22783026  0.33682180  0.80623099    -0.25510
C548        C  0.41354204  0.35820854  0.73916395    -0.06430
N549        N  0.32304727  0.38489778  0.82819440    -0.46610
N550        N  0.18960001  0.36297331  0.67394652    -0.46830
C551        C  0.42363731  0.31417316  0.74818397     0.42480
N552        N  0.32409855  0.42684815  0.70787079     0.01350
N553        N  0.26570776  0.28296788  0.76655405    -0.25530
N554        N  0.33490868  0.41924346  0.79046299    -0.26020
N555        N  0.22362351  0.28165093  0.75533793     0.00990
H556        H  0.32268249  0.23959002  0.77302993     0.06880
H557        H  0.14911931  0.27570500  0.70533244     0.06920
N558        N  0.28158146  0.42492825  0.69684508    -0.26070
N559        N  0.13969963  0.39333787  0.75314016    -0.25680
N560        N  0.35450773  0.33302842  0.76264862     0.01360
C561        C  0.25840902  0.54030676  0.75392394     0.42750
C562        C  0.22284571  0.34193952  0.83190810    -0.06930
N563        N  0.17912522  0.33670098  0.71409495    -0.25680
H564        H  0.07411968  0.38289124  0.77539882     0.06900
N565        N  0.29614988  0.51447363  0.75927792    -0.46900
H566        H  0.25191473  0.34370098  0.84557383     0.06890
C567        C  0.25513672  0.21970863  0.75063653     0.42590
C568        C  0.36048387  0.44028840  0.80834349    -0.06430
Co569      Co  0.29074153  0.33447296  0.78466862     0.73820
N570        N  0.15116337  0.34866516  0.81217211    -0.46620
C571        C  0.33472581  0.44899927  0.66773155     0.42850
N572        N  0.38549310  0.30102386  0.76264626    -0.46610
Co573      Co  0.18064204  0.33701692  0.75459537     0.73890
C574        C  0.16392215  0.30607510  0.69872071    -0.06940
C575        C  0.22401199  0.51581584  0.73936568    -0.06500
N576        N  0.36995864  0.36692845  0.74904789    -0.26030
N577        N  0.12569134  0.45925083  0.73883333    -0.46790
H578        H  0.25461041  0.44424029  0.65928560     0.06860
C579        C  0.28795121  0.24593282  0.76480018    -0.06910
Cl580      Cl  0.25512942  0.37991449  0.75130466    -0.49910
C581        C  0.17222336  0.35046931  0.83592225     0.42620
H582        H  0.43582042  0.38041165  0.72795259     0.06830
N583        N  0.21555516  0.24382004  0.74535541    -0.46630
C584        C  0.15762425  0.84301345  0.82969639     0.42470
N585        N  0.20103370  0.87331774  0.79960884     0.01360
C586        C  0.22101826  0.83767662  0.66682952    -0.06520
H587        H  0.31807410  0.73769256  0.72533653     0.06850
C588        C  0.41791558  0.85415423  0.75444954    -0.06870
Co589      Co  0.18333405  0.84338441  0.74564114     0.74180
N590        N  0.26607034  0.78698945  0.73208781    -0.26050
Co591      Co  0.29291412  0.84062356  0.71139145     0.74070
C592        C  0.42729918  0.81163287  0.74446221     0.42570
N593        N  0.33389829  0.91525915  0.78800212     0.00970
N594        N  0.35829502  0.83423967  0.73109318     0.01080
N595        N  0.15069321  0.83539712  0.68881763    -0.46900
H596        H  0.12310934  0.79933083  0.79963091     0.06840
N597        N  0.22491898  0.78748035  0.74519758     0.01360
N598        N  0.31787637  0.89787142  0.69266003     0.01100
C599        C  0.33486556  0.95126120  0.66645037     0.42710
N600        N  0.29256505  0.91793350  0.80045972    -0.25510
C601        C  0.10344101  0.91403070  0.73663321    -0.06430
N602        N  0.18934284  0.87410140  0.82454601    -0.46610
N603        N  0.31624018  0.91110728  0.66759017    -0.46830
C604        C  0.09626890  0.95750558  0.74588471     0.42480
N605        N  0.18653799  0.84455579  0.70454327     0.01350
N606        N  0.25498230  0.97863903  0.76051841    -0.25530
N607        N  0.17924407  0.84308756  0.78705127    -0.26020
N608        N  0.29710762  0.97808922  0.74890714     0.00990
H609        H  0.20017809  0.02679462  0.76357935     0.06880
H610        H  0.36343677  0.98999296  0.70027297     0.06920
N611        N  0.22815423  0.84489737  0.69211341    -0.26070
N612        N  0.37462745  0.86522338  0.74519099    -0.25680
N613        N  0.16380409  0.93284088  0.75983106     0.01360
C614        C  0.25079151  0.72333861  0.75032991     0.42750
C615        C  0.29977419  0.90904385  0.82595213    -0.06930
N616        N  0.33602636  0.92717994  0.70750680    -0.25680
H617        H  0.44032212  0.87453476  0.76570301     0.06900
N618        N  0.21408638  0.74969742  0.75609958    -0.46900
H619        H  0.27221295  0.90617799  0.84087041     0.06890
C620        C  0.26869323  0.04015305  0.73986743     0.42590
C621        C  0.14991534  0.82250666  0.80447712    -0.06430
Co622      Co  0.22817553  0.92620026  0.78039407     0.73820
N623        N  0.36947827  0.90321097  0.80357966    -0.46620
C624        C  0.16964612  0.83098781  0.66457360     0.42850
N625        N  0.13506684  0.96638873  0.76022914    -0.46610
Co626      Co  0.33654528  0.92184569  0.74765105     0.73890
C627        C  0.34865786  0.96114522  0.69281831    -0.06940
C628        C  0.28505846  0.74789305  0.73439077    -0.06500
N629        N  0.14622949  0.90154702  0.74623670    -0.26030
N630        N  0.38866964  0.80176258  0.73002553    -0.46790
H631        H  0.24912838  0.83138936  0.65280157     0.06860
C632        C  0.23451664  0.01666562  0.75612285    -0.06910
Cl633      Cl  0.26013099  0.88278345  0.74625911    -0.49910
C634        C  0.35064476  0.89900566  0.82790141     0.42620
H635        H  0.07976586  0.89456337  0.72546135     0.06830
N636        N  0.30743594  0.01498839  0.73685657    -0.46630
C637        C  0.59144398  0.93257912  0.42166512     0.42470
N638        N  0.56952589  0.98232395  0.44697336     0.01360
C639        C  0.54313483  0.97554969  0.58032168    -0.06520
H640        H  0.45235999  0.85302057  0.52926794     0.06850
C641        C  0.35385873  0.96606154  0.48852969    -0.06870
Co642      Co  0.58544492  0.95801907  0.50340848     0.74180
N643        N  0.50456300  0.90136961  0.51972712    -0.26050
Co644      Co  0.47568753  0.95486489  0.53506538     0.74070
C645        C  0.34582523  0.92290928  0.49978666     0.42570
N646        N  0.43687676  0.03285480  0.45454415     0.00970
N647        N  0.41266577  0.94705332  0.51374287     0.01080
N648        N  0.61450613  0.98011276  0.55938512    -0.46900
H649        H  0.61595474  0.88984163  0.45682903     0.06840
N650        N  0.54669099  0.90119563  0.50803857     0.01360
N651        N  0.44704569  0.00851604  0.55048512     0.01100
C652        C  0.40108843  0.03946185  0.57771308     0.42710
N653        N  0.47878172  0.03265529  0.44248239    -0.25510
C654        C  0.66579573  0.02742460  0.50735437    -0.06430
N655        N  0.57201719  0.97212314  0.42201717    -0.46610
N656        N  0.43363180  0.00856556  0.57514532    -0.46830
C657        C  0.67410050  0.07008722  0.49544425     0.42480
N658        N  0.58058663  0.96644707  0.54374472     0.01350
N659        N  0.51435447  0.09219898  0.47927479    -0.25530
N660        N  0.58627872  0.95193513  0.46296008    -0.26020
N661        N  0.47267174  0.09226939  0.49180267     0.00990
H662        H  0.56700751  0.14070408  0.47044502     0.06880
H663        H  0.36804176  0.08165337  0.54453499     0.06920
N664        N  0.53839089  0.96450784  0.55545835    -0.26070
N665        N  0.39589969  0.97818660  0.49832716    -0.25680
N666        N  0.60652321  0.04591394  0.48248203     0.01360
C667        C  0.52175635  0.83681125  0.50731461     0.42750
C668        C  0.47187149  0.03740169  0.41670918    -0.06930
N669        N  0.42580925  0.03816630  0.53584824    -0.25680
H670        H  0.33128582  0.98609939  0.47618590     0.06900
N671        N  0.55874697  0.86269363  0.50027411    -0.46900
H672        H  0.49988674  0.04291796  0.40225710     0.06890
C673        C  0.49867299  0.15606708  0.49346066     0.42590
C674        C  0.60106391  0.91930946  0.44883648    -0.06430
Co675      Co  0.54258331  0.03855670  0.46231396     0.73820
N676        N  0.40095588  0.03940192  0.43812833    -0.46620
C677        C  0.59342485  0.98643037  0.58289374     0.42850
N678        N  0.63582667  0.07903226  0.48019214    -0.46610
Co679      Co  0.43201820  0.03616801  0.49501326     0.73890
C680        C  0.39492903  0.05908346  0.55132820    -0.06940
C681        C  0.48610176  0.86230796  0.52028664    -0.06500
N682        N  0.62313656  0.01523577  0.49819175    -0.26030
N683        N  0.38371656  0.91371577  0.51530784    -0.46790
H684        H  0.51420207  0.97883051  0.59425437     0.06860
C685        C  0.53341646  0.13106109  0.47946599    -0.06910
Cl686      Cl  0.50890464  0.99694901  0.49891002    -0.49910
C687        C  0.42024655  0.04218779  0.41382888     0.42620
H688        H  0.68851083  0.00833482  0.52021580     0.06830
N689        N  0.46156495  0.13039237  0.50050646    -0.46630
C690        C  0.58974487  0.43093959  0.42411853     0.42470
N691        N  0.56959077  0.48032222  0.45011822     0.01360
C692        C  0.54749503  0.47028674  0.58385064    -0.06520
H693        H  0.45093014  0.35173549  0.53141043     0.06850
C694        C  0.35446975  0.46875320  0.49370325    -0.06870
Co695      Co  0.58707078  0.45463509  0.50627062     0.74180
N696        N  0.50466770  0.39931515  0.52263108    -0.26050
Co697      Co  0.47825318  0.45317628  0.53874270     0.74070
C698        C  0.34546946  0.42548421  0.50470243     0.42570
N699        N  0.43907420  0.53605967  0.45878047     0.00970
N700        N  0.41380351  0.44782405  0.51803224     0.01080
N701        N  0.61816255  0.47628240  0.56238577    -0.46900
H702        H  0.61475044  0.38697450  0.45858892     0.06840
N703        N  0.54680687  0.39852802  0.51093420     0.01360
N704        N  0.45330722  0.50759291  0.55480702     0.01100
C705        C  0.41664998  0.54293144  0.58413954     0.42710
N706        N  0.48089240  0.53484181  0.44662066    -0.25510
C707        C  0.66979598  0.52222016  0.50929894    -0.06430
N708        N  0.57133481  0.47081543  0.42503555    -0.46610
N709        N  0.44524836  0.50958259  0.58005182    -0.46830
C710        C  0.67822604  0.56483244  0.49727627     0.42480
N711        N  0.58390280  0.46274569  0.54681639     0.01350
N712        N  0.51973159  0.59101339  0.48375029    -0.25530
N713        N  0.58609335  0.44921451  0.46569060    -0.26020
N714        N  0.47855250  0.59196889  0.49669932     0.00990
H715        H  0.57254129  0.63859600  0.47345942     0.06880
H716        H  0.38277001  0.58751215  0.55224742     0.06920
N717        N  0.54200977  0.46039742  0.55882272    -0.26070
N718        N  0.39738467  0.47979625  0.50309706    -0.25680
N719        N  0.60952086  0.54202774  0.48559504     0.01360
C720        C  0.52001495  0.33489892  0.50947557     0.42750
C721        C  0.47524878  0.54674086  0.42146915    -0.06930
N722        N  0.43258397  0.53839106  0.54093677    -0.25680
H723        H  0.33226809  0.48909131  0.48131818     0.06900
N724        N  0.55773716  0.36005100  0.50271999    -0.46900
H725        H  0.50466158  0.55470304  0.40836759     0.06890
C726        C  0.50575504  0.65556687  0.49745319     0.42590
C727        C  0.59969415  0.41670508  0.45109289    -0.06430
Co728      Co  0.54515193  0.53698340  0.46614631     0.73820
N729        N  0.40467088  0.55016192  0.44293085    -0.46620
C730        C  0.59753973  0.48193521  0.58614246     0.42850
N731        N  0.63925030  0.57463712  0.48291480    -0.46610
Co732      Co  0.43588172  0.53709895  0.49979387     0.73890
C733        C  0.40728772  0.56208125  0.55778182    -0.06940
C734        C  0.48498280  0.36069332  0.52266066    -0.06500
N735        N  0.62626099  0.51089629  0.50088043    -0.26030
N736        N  0.38396440  0.41503272  0.51951080    -0.46790
H737        H  0.51911865  0.47255544  0.59819466     0.06860
C738        C  0.53952302  0.62962045  0.48334544    -0.06910
Cl739      Cl  0.51143809  0.49538362  0.50259637    -0.49910
C740        C  0.42463602  0.55740181  0.41892239     0.42620
H741        H  0.69269728  0.50267961  0.52179052     0.06830
N742        N  0.46844527  0.63048761  0.50505967    -0.46630
C743        C  0.09202829  0.17160883  0.42440997     0.42470
N744        N  0.07327343  0.22531488  0.44784341     0.01360
C745        C  0.04428963  0.22389286  0.58134425    -0.06520
H746        H  0.95032976  0.10257920  0.52975044     0.06850
C747        C  0.85585665  0.21677267  0.48814822    -0.06870
Co748      Co  0.08776222  0.20381186  0.50499414     0.74180
N749        N  0.00462938  0.14952686  0.52103181    -0.26050
Co750      Co  0.97705698  0.20407252  0.53551139     0.74070
C751        C  0.84648687  0.17416773  0.49999742     0.42570
N752        N  0.94273987  0.28371553  0.45328984     0.00970
N753        N  0.91416108  0.19728310  0.51363176     0.01080
N754        N  0.11629196  0.22729014  0.56101904    -0.46900
H755        H  0.11381145  0.13161581  0.46117336     0.06840
N756        N  0.04731002  0.14813429  0.51005444     0.01360
N757        N  0.94967942  0.25852935  0.55023459     0.01100
C758        C  0.90724539  0.29306147  0.57751232     0.42710
N759        N  0.98515085  0.28212887  0.44171055    -0.25510
C760        C  0.16991657  0.27126345  0.50905342    -0.06430
N761        N  0.07444050  0.21215068  0.42334298    -0.46610
N762        N  0.93726211  0.26021617  0.57501163    -0.46830
C763        C  0.17989224  0.31339308  0.49675506     0.42480
N764        N  0.08238763  0.21409500  0.54512380     0.01350
N765        N  0.02214545  0.33906972  0.47900251    -0.25530
N766        N  0.08889064  0.19571412  0.46475455    -0.26020
N767        N  0.98005309  0.34025883  0.49114692     0.00990
H768        H  0.07577406  0.38678668  0.47003051     0.06880
H769        H  0.87618100  0.33604924  0.54400518     0.06920
N770        N  0.03983265  0.21291167  0.55645567    -0.26070
N771        N  0.89848304  0.22835806  0.49772060    -0.25680
N772        N  0.11251375  0.28989030  0.48289753     0.01360
C773        C  0.02013022  0.08465916  0.50875679     0.42750
C774        C  0.98086765  0.29569576  0.41667175    -0.06930
N775        N  0.92991711  0.28856827  0.53527786    -0.25680
H776        H  0.83350605  0.23642287  0.47540099     0.06900
N777        N  0.05843280  0.10934220  0.50250093    -0.46900
H778        H  0.01092213  0.30434019  0.40415080     0.06890
C779        C  0.00700915  0.40377016  0.49229185     0.42590
C780        C  0.10145203  0.16103328  0.45191927    -0.06430
Co781      Co  0.04864797  0.28404609  0.46234935     0.73820
N782        N  0.90959516  0.29963761  0.43723003    -0.46620
C783        C  0.09486722  0.23414669  0.58439487     0.42850
N784        N  0.14251808  0.32254327  0.48085761    -0.46610
Co785      Co  0.93702294  0.28568383  0.49421150     0.73890
C786        C  0.90114741  0.31175512  0.55079119    -0.06940
C787        C  0.98479468  0.11097827  0.52131756    -0.06500
N788        N  0.12755009  0.25952971  0.49926803    -0.26030
N789        N  0.88415967  0.16468268  0.51559059    -0.46790
H790        H  0.01487726  0.22734609  0.59492080     0.06860
C791        C  0.04193480  0.37775850  0.47900416    -0.06910
Cl792      Cl  0.01244681  0.24440358  0.49912401    -0.49910
C793        C  0.93071467  0.30792232  0.41365650     0.42620
H794        H  0.19085737  0.25236770  0.52288324     0.06830
N795        N  0.96929299  0.37881814  0.49916261    -0.46630
C796        C  0.08844340  0.68385994  0.41986493     0.42470
N797        N  0.07088218  0.73292575  0.44608617     0.01360
C798        C  0.04218465  0.71995528  0.57893375    -0.06520
H799        H  0.95040156  0.60005138  0.52481543     0.06850
C800        C  0.85377639  0.71785141  0.48581059    -0.06870
Co801      Co  0.08537329  0.70474910  0.50197062     0.74180
N802        N  0.00313176  0.64873972  0.51648415    -0.26050
Co803      Co  0.97496269  0.70226109  0.53245453     0.74070
C804        C  0.84537814  0.67436916  0.49664851     0.42570
N805        N  0.94049634  0.78845493  0.45229889     0.00970
N806        N  0.91294071  0.69705228  0.51023125     0.01080
N807        N  0.11378021  0.72446007  0.55827741    -0.46900
H808        H  0.11150287  0.63750538  0.45329506     0.06840
N809        N  0.04580931  0.64855234  0.50543518     0.01360
N810        N  0.94674632  0.75539883  0.54854652     0.01100
C811        C  0.90645594  0.78947545  0.57679223     0.42710
N812        N  0.98333296  0.78773171  0.44125022    -0.25510
C813        C  0.16789655  0.77142668  0.50749881    -0.06430
N814        N  0.07228522  0.72427894  0.42091584    -0.46610
N815        N  0.93500069  0.75585379  0.57345110    -0.46830
C816        C  0.17754612  0.81437667  0.49629199     0.42480
N817        N  0.07992136  0.71148706  0.54238395     0.01350
N818        N  0.01913552  0.84173003  0.48052335    -0.25530
N819        N  0.08605602  0.70082166  0.46135612    -0.26020
N820        N  0.97685503  0.84210390  0.49239318     0.00990
H821        H  0.07358462  0.88913869  0.47349806     0.06880
H822        H  0.87634820  0.83571094  0.54467619     0.06920
N823        N  0.03747481  0.70975953  0.55384867    -0.26070
N824        N  0.89652526  0.72916434  0.49534286    -0.25680
N825        N  0.10910122  0.79277282  0.48312899     0.01360
C826        C  0.02104910  0.58433693  0.50399246     0.42750
C827        C  0.98007159  0.80098961  0.41617942    -0.06930
N828        N  0.92747424  0.78681266  0.53445302    -0.25680
H829        H  0.83092679  0.73818555  0.47377059     0.06900
N830        N  0.05838959  0.61016765  0.49775317    -0.46900
H831        H  0.01064878  0.80953402  0.40404889     0.06890
C832        C  0.00517905  0.90461360  0.49651594     0.42590
C833        C  0.09822349  0.66827823  0.44641044    -0.06430
Co834      Co  0.04591424  0.78880230  0.46239823     0.73820
N835        N  0.90771348  0.80387301  0.43576057    -0.46620
C836        C  0.09264369  0.73031397  0.58180870     0.42850
N837        N  0.13948279  0.82499285  0.48132902    -0.46610
Co838      Co  0.93426003  0.78716580  0.49344598     0.73890
C839        C  0.90012733  0.80997161  0.55066097    -0.06940
C840        C  0.98450568  0.60966924  0.51639261    -0.06500
N841        N  0.12475027  0.76093903  0.49816964    -0.26030
N842        N  0.88358536  0.66408749  0.51151830    -0.46790
H843        H  0.01315596  0.72390811  0.59272236     0.06860
C844        C  0.03952068  0.87983501  0.48207842    -0.06910
Cl845      Cl  0.00993482  0.74569195  0.49744668    -0.49910
C846        C  0.92991021  0.81217378  0.41238766     0.42620
H847        H  0.19008949  0.75067056  0.51962566     0.06830
N848        N  0.96663854  0.87975044  0.50200615    -0.46630
C849        C  0.01010782  0.44986723  0.49555192    -0.05460
C850        C  0.05466695  0.46804527  0.50091194    -0.32890
C851        C  0.05907483  0.51208262  0.50327745     0.36360
C852        C  0.01855935  0.53834752  0.50014730    -0.05810
C853        C  0.97408810  0.52015432  0.49461849    -0.32780
C854        C  0.96965291  0.47616441  0.49231982     0.36270
H855        H  0.08601378  0.44798316  0.50362566     0.16640
O856        O  0.10236854  0.52880069  0.51008058    -0.60280
H857        H  0.94268832  0.54014479  0.49189087     0.16660
O858        O  0.92628997  0.45946840  0.48559943    -0.60380
H859        H  0.90795828  0.45642627  0.50225524     0.43650
H860        H  0.12044804  0.53260509  0.49338742     0.43610
C861        C  0.01625790  0.03882415  0.50487849    -0.05460
C862        C  0.05712090  0.01319824  0.50730777    -0.32890
C863        C  0.05361642  0.96907866  0.50557563     0.36360
C864        C  0.00882301  0.95027374  0.50093687    -0.05810
C865        C  0.96796348  0.97588956  0.49848688    -0.32780
C866        C  0.97150391  0.02001727  0.50010531     0.36270
H867        H  0.09160858  0.02728400  0.51120859     0.16640
O868        O  0.09408305  0.94463514  0.50878831    -0.60280
H869        H  0.93353134  0.96183440  0.49441442     0.16660
O870        O  0.93121718  0.04447024  0.49632710    -0.60380
H871        H  0.93184948  0.05332158  0.47749466     0.43650
H872        H  0.09393956  0.93526885  0.52753712     0.43610
C873        C  0.22238793  0.34172365  0.49939553    -0.05460
C874        C  0.21856563  0.38519376  0.49191157    -0.32890
C875        C  0.25788232  0.41290338  0.49336146     0.36360
C876        C  0.30256065  0.39745124  0.50238575    -0.05810
C877        C  0.30627511  0.35399187  0.50995400    -0.32780
C878        C  0.26692254  0.32634386  0.50860356     0.36270
H879        H  0.18467108  0.39801587  0.48503686     0.16640
O880        O  0.25143981  0.45525930  0.48682245    -0.60280
H881        H  0.34013645  0.34108394  0.51681318     0.16660
O882        O  0.27323320  0.28402105  0.51529421    -0.60380
H883        H  0.27229379  0.28235663  0.53471550     0.43650
H884        H  0.25230409  0.45710914  0.46740435     0.43610
C885        C  0.80221008  0.64692037  0.49584614    -0.05460
C886        C  0.80712647  0.60299874  0.50182730    -0.32890
C887        C  0.76736438  0.57583505  0.50261559     0.36360
C888        C  0.72130264  0.59241046  0.49762235    -0.05810
C889        C  0.71634603  0.63631186  0.49157829    -0.32780
C890        C  0.75612758  0.66351888  0.49085493     0.36270
H891        H  0.84218570  0.58945188  0.50576217     0.16640
O892        O  0.77432138  0.53310803  0.50778842    -0.60280
H893        H  0.68125055  0.64981956  0.48769265     0.16660
O894        O  0.74914566  0.70628292  0.48584576    -0.60380
H895        H  0.74371568  0.71855565  0.50324673     0.43650
H896        H  0.77952236  0.52062130  0.49043065     0.43610
C897        C  0.30286841  0.89513139  0.49823925    -0.05460
C898        C  0.29921226  0.85892323  0.51519411    -0.32890
C899        C  0.25885478  0.83236550  0.51512306     0.36360
C900        C  0.22117858  0.84134429  0.49756414    -0.05810
C901        C  0.22509907  0.87730412  0.48042930    -0.32780
C902        C  0.26522344  0.90397728  0.48061669     0.36270
H903        H  0.32758686  0.85123256  0.52892308     0.16640
O904        O  0.25694775  0.79778316  0.53226186    -0.60280
H905        H  0.19695660  0.88486521  0.46653173     0.16660
O906        O  0.26761966  0.93768852  0.46284776    -0.60380
H907        H  0.24637037  0.95988437  0.47001328     0.43650
H908        H  0.25364158  0.80975357  0.54988661     0.43610
C909        C  0.50935402  0.70183996  0.50035418    -0.05460
C910        C  0.55481201  0.72099992  0.49988024    -0.32890
C911        C  0.55957291  0.76513756  0.50140557     0.36360
C912        C  0.51848051  0.79068024  0.50363803    -0.05810
C913        C  0.47303138  0.77152048  0.50377127    -0.32780
C914        C  0.46826700  0.72744701  0.50227997     0.36270
H915        H  0.58690682  0.70170830  0.49859278     0.16640
O916        O  0.60448405  0.78263876  0.50189564    -0.60280
H917        H  0.44085206  0.79070827  0.50492942     0.16660
O918        O  0.42331858  0.71003648  0.50157036    -0.60380
H919        H  0.41314692  0.70644768  0.52015651     0.43650
H920        H  0.61385663  0.78720098  0.48324536     0.43610
C921        C  0.50311263  0.20156547  0.49844688    -0.05460
C922        C  0.54867886  0.21819434  0.50334095    -0.32890
C923        C  0.55495797  0.26181367  0.50652583     0.36360
C924        C  0.51529830  0.28929782  0.50482519    -0.05810
C925        C  0.46969007  0.27266224  0.49997976    -0.32780
C926        C  0.46341210  0.22902036  0.49679183     0.36270
H927        H  0.57951791  0.19724409  0.50488053     0.16640
O928        O  0.59939947  0.27690042  0.51261173    -0.60280
H929        H  0.43886521  0.29361899  0.49838369     0.16660
O930        O  0.41900766  0.21391958  0.49063489    -0.60380
H931        H  0.40203704  0.20975535  0.50764740     0.43650
H932        H  0.61623101  0.28117099  0.49556516     0.43610
C933        C  0.80248750  0.14740094  0.49856573    -0.05460
C934        C  0.75969882  0.16489803  0.48857101    -0.32890
C935        C  0.71768804  0.14037828  0.48767764     0.36360
C936        C  0.71771212  0.09730669  0.49681420    -0.05810
C937        C  0.76045152  0.07991326  0.50685096    -0.32780
C938        C  0.80232125  0.10442127  0.50784547     0.36270
H939        H  0.75842284  0.19792570  0.48170897     0.16640
O940        O  0.67645349  0.15936931  0.47859441    -0.60280
H941        H  0.76183411  0.04691880  0.51376179     0.16660
O942        O  0.84327855  0.08547481  0.51730265    -0.60380
H943        H  0.84073734  0.08686488  0.53662504     0.43650
H944        H  0.67846483  0.15807323  0.45925223     0.43610
C945        C  0.34008657  0.98094986  0.64319258    -0.05460
C946        C  0.36634468  0.01892709  0.64571246    -0.32890
C947        C  0.37954152  0.04418866  0.62380708     0.36360
C948        C  0.36584987  0.03243779  0.59878442    -0.05810
C949        C  0.33424840  0.99786199  0.59645805    -0.32780
C950        C  0.32160791  0.97193839  0.61843888     0.36270
H951        H  0.38033800  0.02784816  0.66437130     0.16640
O952        O  0.41078708  0.07737052  0.62672918    -0.60280
H953        H  0.32439786  0.98767792  0.57718108     0.16660
O954        O  0.29450098  0.93621619  0.61508165    -0.60380
H955        H  0.26103854  0.94524426  0.61846670     0.43650
H956        H  0.44304206  0.06410423  0.62779356     0.43610
C957        C  0.14722521  0.80723590  0.64325962    -0.05460
C958        C  0.16879470  0.80864901  0.61830491    -0.32890
C959        C  0.15192377  0.78347590  0.59829409     0.36360
C960        C  0.11278638  0.75592108  0.60294470    -0.05810
C961        C  0.09064055  0.75497991  0.62776133    -0.32780
C962        C  0.10757731  0.78014219  0.64783382     0.36270
H963        H  0.19909807  0.82936787  0.61420824     0.16640
O964        O  0.17378267  0.78650169  0.57419787    -0.60280
H965        H  0.06035225  0.73423001  0.63180787     0.16660
O966        O  0.08562721  0.77721227  0.67193031    -0.60380
H967        H  0.10164524  0.75301757  0.68136705     0.43650
H968        H  0.15706881  0.81014676  0.56460361     0.43610
C969        C  0.38320116  0.53627546  0.60611963    -0.05460
C970        C  0.34518947  0.50832760  0.60181242    -0.32890
C971        C  0.33002276  0.47920233  0.62151050     0.36360
C972        C  0.35095754  0.47933330  0.64659330    -0.05810
C973        C  0.38559561  0.51026951  0.65162145    -0.32780
C974        C  0.40168610  0.53856420  0.63159771     0.36270
H975        H  0.33189574  0.50482225  0.58212151     0.16640
O976        O  0.29728016  0.44870265  0.61534602    -0.60280
H977        H  0.40142790  0.51164097  0.67086079     0.16660
O978        O  0.43947739  0.56493154  0.63631634    -0.60380
H979        H  0.42474445  0.59276739  0.64030057     0.43650
H980        H  0.31658619  0.42392607  0.60987971     0.43610
C981        C  0.15195242  0.30427738  0.64846011    -0.05460
C982        C  0.18224076  0.29313040  0.62773893    -0.32890
C983        C  0.16453339  0.27009053  0.60672403     0.36360
C984        C  0.11580504  0.25803892  0.60626582    -0.05810
C985        C  0.08574470  0.27027868  0.62692555    -0.32780
C986        C  0.10342222  0.29284323  0.64781731     0.36270
H987        H  0.21993112  0.30109955  0.62825525     0.16640
O988        O  0.19547086  0.25846513  0.58725724    -0.60280
H989        H  0.04812038  0.26237781  0.62725452     0.16660
O990        O  0.07260690  0.30441687  0.66739425    -0.60380
H991        H  0.06748026  0.27812493  0.67840985     0.43650
H992        H  0.19651674  0.28330668  0.57470223     0.43610
C993        C  0.25704217  0.58686748  0.75712068    -0.05460
C994        C  0.21256038  0.60781934  0.75765754    -0.32890
C995        C  0.20984712  0.65238621  0.75688364     0.36360
C996        C  0.25210718  0.67672196  0.75536935    -0.05810
C997        C  0.29659187  0.65576046  0.75627470    -0.32780
C998        C  0.29932174  0.61120913  0.75724071     0.36270
H999        H  0.17964316  0.58961731  0.75791394     0.16640
O1000       O  0.16572395  0.67166897  0.75633570    -0.60280
H1001       H  0.32950908  0.67396571  0.75547804     0.16660
O1002       O  0.34348238  0.59198100  0.75704915    -0.60380
H1003       H  0.35230241  0.59020517  0.73827583     0.43650
H1004       H  0.15698237  0.67390397  0.73755506     0.43610
C1005       C  0.26197854  0.17430723  0.74464700    -0.05460
C1006       C  0.22643720  0.15314815  0.73081382    -0.32890
C1007       C  0.22978876  0.10924709  0.72725284     0.36360
C1008       C  0.26931805  0.08638102  0.73723857    -0.05810
C1009       C  0.30616698  0.10755867  0.74937793    -0.32780
C1010       C  0.30277909  0.15092763  0.75343410     0.36270
H1011       H  0.19520688  0.17027006  0.72359663     0.16640
O1012       O  0.19344934  0.08866184  0.71501149    -0.60280
H1013       H  0.33627372  0.08984645  0.75755096     0.16660
O1014       O  0.33827509  0.16878225  0.76769937    -0.60380
H1015       H  0.36485337  0.17438202  0.75507612     0.43650
H1016       H  0.20396867  0.08706559  0.69648649     0.43610
C1017       C  0.61772337  0.50869163  0.60672111    -0.05460
C1018       C  0.66585740  0.50397566  0.61359928    -0.32890
C1019       C  0.68584743  0.52861357  0.63310650     0.36360
C1020       C  0.65760515  0.55919797  0.64596065    -0.05810
C1021       C  0.60934887  0.56368863  0.63919403    -0.32780
C1022       C  0.58945160  0.53918834  0.61961890     0.36270
H1023       H  0.68790786  0.48045962  0.60416648     0.16640
O1024       O  0.73219869  0.52059036  0.64050804    -0.60280
H1025       H  0.58714862  0.58690902  0.64879378     0.16660
O1026       O  0.54257966  0.54621800  0.61291548    -0.60380
H1027       H  0.54369124  0.56701986  0.59784047     0.43650
H1028       H  0.75236665  0.53180647  0.62576561     0.43610
C1029       C  0.84978532  0.74281254  0.64679277    -0.05460
C1030       C  0.82342441  0.73779628  0.62382299    -0.32890
C1031       C  0.83589714  0.76049001  0.60057984     0.36360
C1032       C  0.87553068  0.78826363  0.60006322    -0.05810
C1033       C  0.89845583  0.79654193  0.62355310    -0.32780
C1034       C  0.88663814  0.77369156  0.64665175     0.36270
H1035       H  0.79473326  0.71465034  0.62353280     0.16640
O1036       O  0.81359980  0.75074692  0.57774334    -0.60280
H1037       H  0.93006241  0.81656184  0.62329877     0.16660
O1038       O  0.91479435  0.77896233  0.66815383    -0.60380
H1039       H  0.94127409  0.75806207  0.66650703     0.43650
H1040       H  0.78994477  0.77395084  0.57459663     0.43610
C1041       C  0.96955725  0.53505960  0.75008916    -0.05460
C1042       C  0.97493626  0.50295588  0.73170475    -0.32890
C1043       C  0.01217082  0.47305070  0.73369589     0.36360
C1044       C  0.04406526  0.47371359  0.75478360    -0.05810
C1045       C  0.03829835  0.50481102  0.77360898    -0.32780
C1046       C  0.00154676  0.53548175  0.77135370     0.36270
H1047       H  0.95106800  0.50175649  0.71513416     0.16640
O1048       O  0.01795517  0.44396385  0.71449210    -0.60280
H1049       H  0.06342209  0.50627778  0.78960789     0.16660
O1050       O  0.99716776  0.56530651  0.79015536    -0.60380
H1051       H  0.02182342  0.58710181  0.78566085     0.43650
H1052       H  0.03831745  0.45845865  0.70091566     0.43610
C1053       C  0.47148755  0.78476651  0.74670687    -0.05460
C1054       C  0.47579698  0.74849455  0.73145578    -0.32890
C1055       C  0.51682474  0.72251305  0.73257383     0.36360
C1056       C  0.55501172  0.73235362  0.74928049    -0.05810
C1057       C  0.55063704  0.76853147  0.76456586    -0.32780
C1058       C  0.50974203  0.79457336  0.76337741     0.36270
H1059       H  0.44730196  0.74023180  0.71830931     0.16640
O1060       O  0.51944244  0.68842636  0.71659777    -0.60280
H1061       H  0.57913851  0.77686295  0.77769364     0.16660
O1062       O  0.50752040  0.82892199  0.77913005    -0.60380
H1063       H  0.52728359  0.85126964  0.77010462     0.43650
H1064       H  0.49988522  0.66579244  0.72548587     0.43610
C1065       C  0.65161547  0.06664430  0.64145104    -0.05460
C1066       C  0.68198965  0.04176770  0.62594970    -0.32890
C1067       C  0.66347719  0.01528843  0.60706001     0.36360
C1068       C  0.61379358  0.01298147  0.60339612    -0.05810
C1069       C  0.58333580  0.03774256  0.61888909    -0.32780
C1070       C  0.60187819  0.06423943  0.63782018     0.36270
H1071       H  0.72033152  0.04186306  0.62871000     0.16640
O1072       O  0.69420431  0.99059566  0.59296792    -0.60280
H1073       H  0.54496176  0.03728414  0.61614462     0.16660
O1074       O  0.57115714  0.08860628  0.65211948    -0.60380
H1075       H  0.55869483  0.06913173  0.66628239     0.43650
H1076       H  0.70621692  0.00963278  0.57846639     0.43610
C1077       C  0.87357057  0.28990711  0.59972980    -0.05460
C1078       C  0.83676155  0.25953997  0.59846225    -0.32890
C1079       C  0.82187656  0.23599864  0.62098656     0.36360
C1080       C  0.84347040  0.24311905  0.64529237    -0.05810
C1081       C  0.87594669  0.27713077  0.64689587    -0.32780
C1082       C  0.89110308  0.30019697  0.62440217     0.36270
H1083       H  0.82375203  0.25034461  0.57954991     0.16640
O1084       O  0.78892755  0.20408663  0.61858972    -0.60280
H1085       H  0.89284983  0.28385986  0.66526920     0.16660
O1086       O  0.92817265  0.32847897  0.62628464    -0.60380
H1087       H  0.91266340  0.35673581  0.62787466     0.43650
H1088       H  0.75764471  0.21726062  0.62284862     0.43610
C1089       C  0.97018554  0.03847657  0.74147072    -0.05460
C1090       C  0.01359750  0.05407461  0.75084799    -0.32890
C1091       C  0.05488218  0.02847201  0.75177836     0.36360
C1092       C  0.05345560  0.98592020  0.74355109    -0.05810
C1093       C  0.01021887  0.97048276  0.73380071    -0.32780
C1094       C  0.96910872  0.99637538  0.73248021     0.36270
H1095       H  0.01592831  0.08650805  0.75726240     0.16640
O1096       O  0.09677813  0.04593500  0.76016759    -0.60280
H1097       H  0.00792663  0.93807399  0.72733944     0.16660
O1098       O  0.92775331  0.97967961  0.72291395    -0.60380
H1099       H  0.93047662  0.98338838  0.70360371     0.43650
H1100       H  0.09499169  0.04390629  0.77956560     0.43610
C1101       C  0.76761650  0.84505283  0.74935161    -0.05460
C1102       C  0.80655428  0.87078846  0.75522075    -0.32890
C1103       C  0.80168798  0.91512823  0.75450084     0.36360
C1104       C  0.75751864  0.93396207  0.74766248    -0.05810
C1105       C  0.71843229  0.90821653  0.74196398    -0.32780
C1106       C  0.72322316  0.86385397  0.74279625     0.36270
H1107       H  0.84037873  0.85651010  0.76106150     0.16640
O1108       O  0.83950707  0.93986268  0.76166119    -0.60280
H1109       H  0.68461785  0.92250995  0.73612716     0.16660
O1110       O  0.68509776  0.83915682  0.73599287    -0.60380
H1111       H  0.66232381  0.84011313  0.75095225     0.43650
H1112       H  0.86458062  0.93561844  0.74818340     0.43610
C1113       C  0.77072423  0.34414781  0.75012769    -0.05460
C1114       C  0.81305364  0.36775992  0.75124405    -0.32890
C1115       C  0.81138991  0.41222949  0.75075564     0.36360
C1116       C  0.76693678  0.43341900  0.74884689    -0.05810
C1117       C  0.72470214  0.40981139  0.74750232    -0.32780
C1118       C  0.72635493  0.36544696  0.74776597     0.36270
H1119       H  0.84731907  0.35173882  0.75324683     0.16640
O1120       O  0.85328676  0.43459516  0.75262165    -0.60280
H1121       H  0.69042047  0.42580680  0.74547965     0.16660
O1122       O  0.68442260  0.34334217  0.74527756    -0.60380
H1123       H  0.68208760  0.33762375  0.72636382     0.43650
H1124       H  0.85667140  0.44007306  0.77151497     0.43610
C1125       C  0.55177965  0.23706089  0.74600871    -0.05460
C1126       C  0.55524516  0.28171568  0.74609111    -0.32890
C1127       C  0.51402370  0.30751395  0.74563222     0.36360
C1128       C  0.46824751  0.28866670  0.74588992    -0.05810
C1129       C  0.46487648  0.24401363  0.74591385    -0.32780
C1130       C  0.50599518  0.21828725  0.74561450     0.36270
H1131       H  0.59011337  0.29671061  0.74659509     0.16640
O1132       O  0.51897560  0.35087550  0.74663334    -0.60280
H1133       H  0.43005078  0.22888424  0.74638963     0.16660
O1134       O  0.50085707  0.17479662  0.74671571    -0.60380
H1135       H  0.49191630  0.16713715  0.72873541     0.43650
H1136       H  0.52673323  0.36068403  0.72842789     0.43610
C1137       C  0.88128099  0.62865749  0.85284667    -0.05460
C1138       C  0.87135410  0.64142634  0.87817999    -0.32890
C1139       C  0.88660255  0.61705835  0.89985568     0.36360
C1140       C  0.91154388  0.57826747  0.89644701    -0.05810
C1141       C  0.92264000  0.56600455  0.87092964    -0.32780
C1142       C  0.90753141  0.59091592  0.84915742     0.36270
H1143       H  0.85082267  0.67023037  0.88121733     0.16640
O1144       O  0.87530787  0.63101176  0.92427753    -0.60280
H1145       H  0.94178802  0.53656319  0.86777165     0.16660
O1146       O  0.91640858  0.57697180  0.82446406    -0.60380
H1147       H  0.88825877  0.55940627  0.82016879     0.43650
H1148       H  0.89997522  0.65262104  0.92797804     0.43610
C1149       C  0.12208101  0.42698511  0.89858245    -0.05460
C1150       C  0.15875505  0.39713743  0.90301280    -0.32890
C1151       C  0.17412368  0.37082033  0.88307549     0.36360
C1152       C  0.15302536  0.37446478  0.85806152    -0.05810
C1153       C  0.11630735  0.40442705  0.85365165    -0.32780
C1154       C  0.10062160  0.43037478  0.87372395     0.36270
H1155       H  0.17438072  0.39286561  0.92226895     0.16640
O1156       O  0.20809283  0.34020001  0.88864577    -0.60280
H1157       H  0.10013236  0.40828141  0.83449910     0.16660
O1158       O  0.06480269  0.45951831  0.86876306    -0.60380
H1159       H  0.03465146  0.44288261  0.86969570     0.43650
H1160       H  0.23807573  0.35600708  0.89188311     0.43610
C1161       C  0.86780741  0.11801615  0.85102921    -0.05460
C1162       C  0.86261501  0.07359015  0.85021562    -0.32890
C1163       C  0.87670054  0.04723804  0.87150398     0.36360
C1164       C  0.89590996  0.06548162  0.89378507    -0.05810
C1165       C  0.90098013  0.10989820  0.89455703    -0.32780
C1166       C  0.88696525  0.13618246  0.87332008     0.36270
H1167       H  0.84709706  0.05947619  0.83319545     0.16640
O1168       O  0.87241211  0.00383923  0.87020056    -0.60280
H1169       H  0.91643686  0.12411108  0.91156649     0.16660
O1170       O  0.89136599  0.17957272  0.87466014    -0.60380
H1171       H  0.92332723  0.18630702  0.86702350     0.43650
H1172       H  0.84059615  0.99702781  0.87799697     0.43610
C1173       C  0.09462849  0.89821516  0.89469509    -0.05460
C1174       C  0.07505386  0.90656258  0.86977687    -0.32890
C1175       C  0.08919534  0.88261326  0.84828949     0.36360
C1176       C  0.12386976  0.85004932  0.85140804    -0.05810
C1177       C  0.13970894  0.83898447  0.87666119    -0.32780
C1178       C  0.12545036  0.86254413  0.89818503     0.36270
H1179       H  0.05072920  0.93313256  0.86657560     0.16640
O1180       O  0.07386850  0.89507269  0.82374134    -0.60280
H1181       H  0.16723870  0.81483550  0.87935224     0.16660
O1182       O  0.14469592  0.85204174  0.92219196    -0.60380
H1183       H  0.17612298  0.86668698  0.92235892     0.43650
H1184       H  0.04790982  0.87489391  0.81971114     0.43610
C1185       C  0.99187619  0.69878182  0.98942188    -0.05460
C1186       C  0.96658992  0.72204985  0.00765723    -0.32890
C1187       C  0.97641873  0.76499892  0.01061505     0.36360
C1188       C  0.01214514  0.78554176  0.99492294    -0.05810
C1189       C  0.03617631  0.76241316  0.97580493    -0.32780
C1190       C  0.02625158  0.71903852  0.97307047     0.36270
H1191       H  0.94112142  0.70620852  0.02082480     0.16640
O1192       O  0.95312475  0.78563007  0.03024615    -0.60280
H1193       H  0.06321593  0.77761788  0.96339437     0.16660
O1194       O  0.05173957  0.69626738  0.95525392    -0.60380
H1195       H  0.03146357  0.69631902  0.93940001     0.43650
H1196       H  0.92093841  0.79259407  0.02320767     0.43610
C1197       C  0.01125873  0.19734267  0.00202828    -0.05460
C1198       C  0.04775366  0.21901006  0.98776900    -0.32890
C1199       C  0.05493161  0.26299324  0.99004426     0.36360
C1200       C  0.02550151  0.28635965  0.00675346    -0.05810
C1201       C  0.99008192  0.26492973  0.02161624    -0.32780
C1202       C  0.98304354  0.22082338  0.01958925     0.36270
H1203       H  0.07011676  0.20207385  0.97417051     0.16640
O1204       O  0.08868064  0.28334240  0.97451727    -0.60280
H1205       H  0.96691939  0.28268837  0.03441803     0.16660
O1206       O  0.94848871  0.20132276  0.03491875    -0.60380
H1207       H  0.91777137  0.20817560  0.02608727     0.43650
H1208       H  0.11817528  0.28326349  0.98519574     0.43610
C1209       C  0.61360805  0.65059877  0.89635649    -0.05460
C1210       C  0.65157513  0.62190815  0.90079312    -0.32890
C1211       C  0.66647803  0.59426897  0.88126766     0.36360
C1212       C  0.64389227  0.59513661  0.85663344    -0.05810
C1213       C  0.60321117  0.62099018  0.85308026    -0.32780
C1214       C  0.58832999  0.64878915  0.87252200     0.36270
H1215       H  0.67071961  0.62161464  0.91914379     0.16640
O1216       O  0.70684113  0.57002291  0.88532009    -0.60280
H1217       H  0.58635928  0.62345488  0.83404220     0.16660
O1218       O  0.55071372  0.67592324  0.86731625    -0.60380
H1219       H  0.56538511  0.70211216  0.85934791     0.43650
H1220       H  0.69493639  0.54160853  0.89144540     0.43610
C1221       C  0.40729598  0.82761650  0.89385023    -0.05460
C1222       C  0.42284740  0.81851189  0.86847164    -0.32890
C1223       C  0.40649376  0.84277424  0.84674313     0.36360
C1224       C  0.37342061  0.87617790  0.85022667    -0.05810
C1225       C  0.35862086  0.88573604  0.87553277    -0.32780
C1226       C  0.37560365  0.86230299  0.89723750     0.36270
H1227       H  0.44736596  0.79235553  0.86537129     0.16640
O1228       O  0.42099592  0.83197391  0.82216677    -0.60280
H1229       H  0.33330032  0.91137299  0.87853438     0.16660
O1230       O  0.35934183  0.87277484  0.92158654    -0.60380
H1231       H  0.38029313  0.89637316  0.92691399     0.43650
H1232       H  0.45030144  0.84902316  0.81860434     0.43610
C1233       C  0.29939543  0.64343709  0.99876080    -0.05460
C1234       C  0.29365886  0.60603232  0.98472077    -0.32890
C1235       C  0.25059333  0.58330462  0.98566213     0.36360
C1236       C  0.21187160  0.59778372  0.00076871    -0.05810
C1237       C  0.21755932  0.63520234  0.01481915    -0.32780
C1238       C  0.26067836  0.65794314  0.01388299     0.36270
H1239       H  0.32239770  0.59419559  0.97266585     0.16640
O1240       O  0.24649659  0.54756487  0.97115797    -0.60280
H1241       H  0.18877686  0.64695291  0.02688470     0.16660
O1242       O  0.26483070  0.69368033  0.02838503    -0.60380
H1243       H  0.25078632  0.71714867  0.01739020     0.43650
H1244       H  0.26090474  0.52417046  0.98206639     0.43610
C1245       C  0.71710270  0.84677204  0.99852128    -0.05460
C1246       C  0.75126274  0.84121875  0.97854512    -0.32890
C1247       C  0.79469052  0.86403056  0.97813391     0.36360
C1248       C  0.80452012  0.89304329  0.99778851    -0.05810
C1249       C  0.77102388  0.89817417  0.01790937    -0.32780
C1250       C  0.72776854  0.87548013  0.01846644     0.36270
H1251       H  0.74413398  0.81937536  0.96310697     0.16640
O1252       O  0.82710748  0.85804020  0.95831049    -0.60280
H1253       H  0.77879886  0.91941629  0.03359228     0.16660
O1254       O  0.69763935  0.87978763  0.03953154    -0.60380
H1255       H  0.68351066  0.90872434  0.03730663     0.43650
H1256       H  0.84863917  0.83498994  0.96496891     0.43610
C1257       C  0.61634041  0.10372817  0.84765444    -0.05460
C1258       C  0.62468262  0.08783653  0.87316684    -0.32890
C1259       C  0.61155286  0.11136840  0.89496953     0.36360
C1260       C  0.59063040  0.15237855  0.89154104    -0.05810
C1261       C  0.57740329  0.16602426  0.86610996    -0.32780
C1262       C  0.58991632  0.14200782  0.84431685     0.36270
H1263       H  0.64574347  0.05904273  0.87620534     0.16640
O1264       O  0.62292632  0.09520170  0.91942076    -0.60280
H1265       H  0.56013213  0.19665745  0.86282130     0.16660
O1266       O  0.58088664  0.15852236  0.81959032    -0.60380
H1267       H  0.60621665  0.18009498  0.81598957     0.43650
H1268       H  0.59499259  0.07756218  0.92499308     0.43610
C1269       C  0.38244480  0.40913016  0.85644420    -0.05460
C1270       C  0.42306052  0.38386004  0.85211451    -0.32890
C1271       C  0.43752017  0.35270877  0.87082420     0.36360
C1272       C  0.41215457  0.34719751  0.89476573    -0.05810
C1273       C  0.37467308  0.37554816  0.90013032    -0.32780
C1274       C  0.36006018  0.40641804  0.88128008     0.36270
H1275       H  0.43978181  0.38431272  0.83288770     0.16640
O1276       O  0.47465969  0.32601916  0.86474905    -0.60280
H1277       H  0.35552495  0.37302607  0.91861814     0.16660
O1278       O  0.31979413  0.43010248  0.88603728    -0.60380
H1279       H  0.33182431  0.45757156  0.89235528     0.43650
H1280       H  0.45950977  0.30133156  0.85651189     0.43610
C1281       C  0.30832295  0.13945779  0.99378368    -0.05460
C1282       C  0.30768253  0.09575836  0.00123176    -0.32890
C1283       C  0.26555703  0.07156808  0.00022251     0.36360
C1284       C  0.22264169  0.09057530  0.99128675    -0.05810
C1285       C  0.22326309  0.13424850  0.98376553    -0.32780
C1286       C  0.26539765  0.15850092  0.98487115     0.36270
H1287       H  0.34001205  0.07984304  0.00787468     0.16640
O1288       O  0.26725685  0.02906914  0.00742971    -0.60280
H1289       H  0.19088417  0.15005557  0.97708390     0.16660
O1290       O  0.26369930  0.20105234  0.97780714    -0.60380
H1291       H  0.26923718  0.20239747  0.95859904     0.43650
H1292       H  0.26167748  0.02789087  0.02663739     0.43610
C1293       C  0.52075663  0.53615984  0.00541274    -0.05460
C1294       C  0.47486095  0.51822835  0.00364275    -0.32890
C1295       C  0.46852905  0.47402207  0.00283143     0.36360
C1296       C  0.50859830  0.44671920  0.00322328    -0.05810
C1297       C  0.55446859  0.46441546  0.00571916    -0.32780
C1298       C  0.56073575  0.50870986  0.00706169     0.36270
H1299       H  0.44361588  0.53871495  0.00217933     0.16640
O1300       O  0.42333175  0.45823451  0.99950918    -0.60280
H1301       H  0.58570697  0.44384159  0.00610534     0.16660
O1302       O  0.60618085  0.52471107  0.00875977    -0.60380
H1303       H  0.61747536  0.52871590  0.99038748     0.43650
H1304       H  0.40829069  0.45802356  0.01715855     0.43610
C1305       C  0.51913095  0.03643773  0.98630177    -0.05460
C1306       C  0.47149308  0.02202844  0.98628745    -0.32890
C1307       C  0.46119820  0.97847395  0.98583445     0.36360
C1308       C  0.49895420  0.94883640  0.98566453    -0.05810
C1309       C  0.54638375  0.96345259  0.98365951    -0.32780
C1310       C  0.55666128  0.00697258  0.98367017     0.36270
H1311       H  0.44214989  0.04448177  0.98792677     0.16640
O1312       O  0.41447173  0.96527789  0.98754625    -0.60280
H1313       H  0.57583144  0.94088567  0.98341734     0.16660
O1314       O  0.60353540  0.01980944  0.98378826    -0.60380
H1315       H  0.61375514  0.02061324  0.96514584     0.43650
H1316       H  0.40702530  0.96323499  0.00656251     0.43610
C1317       C  0.71959908  0.33965079  0.00197225    -0.05460
C1318       C  0.71594750  0.38410438  0.00380667    -0.32890
C1319       C  0.75696173  0.40919339  0.00605692     0.36360
C1320       C  0.80247815  0.38979784  0.00611740    -0.05810
C1321       C  0.80579681  0.34513476  0.00597389    -0.32780
C1322       C  0.76480253  0.32004104  0.00417424     0.36270
H1323       H  0.68128470  0.39963209  0.00276751     0.16640
O1324       O  0.75216625  0.45264339  0.00689739    -0.60280
H1325       H  0.84046341  0.32956715  0.00641799     0.16660
O1326       O  0.76977590  0.27672270  0.00252325    -0.60380
H1327       H  0.76978164  0.26550705  0.02092019     0.43650
H1328       H  0.75079211  0.46291386  0.98832982     0.43610
C1329       C  0.40008665  0.73544819  0.10345952    -0.05460
C1330       C  0.36019886  0.70867750  0.10155215    -0.32890
C1331       C  0.34354982  0.68470984  0.12322554     0.36360
C1332       C  0.36636661  0.68741469  0.14760668    -0.05810
C1333       C  0.40711146  0.71316220  0.14950959    -0.32780
C1334       C  0.42392043  0.73723504  0.12767192     0.36270
H1335       H  0.34172847  0.70580444  0.08316884     0.16640
O1336       O  0.30413147  0.65929664  0.12043993    -0.60280
H1337       H  0.42483017  0.71605223  0.16813914     0.16660
O1338       O  0.46312445  0.76289056  0.13037045    -0.60380
H1339       H  0.44999400  0.79097672  0.13517104     0.43650
H1340       H  0.31711036  0.63063243  0.11682864     0.43610
C1341       C  0.17016889  0.52865376  0.14632965    -0.05460
C1342       C  0.14592643  0.48996589  0.15191820    -0.32890
C1343       C  0.13125189  0.46382881  0.13191444     0.36360
C1344       C  0.14111181  0.47560457  0.10571198    -0.05810
C1345       C  0.17048956  0.51131084  0.10022209    -0.32780
C1346       C  0.18492889  0.53788835  0.12029849     0.36270
H1347       H  0.13505586  0.48120011  0.17177933     0.16640
O1348       O  0.10169334  0.42998215  0.13793441    -0.60280
H1349       H  0.17743816  0.52145269  0.08004655     0.16660
O1350       O  0.20967949  0.57444752  0.11382437    -0.60380
H1351       H  0.24393735  0.56633658  0.11513853     0.43650
H1352       H  0.12336993  0.40507350  0.14021820     0.43610
C1353       C  0.35885498  0.63813026  0.35912454    -0.05460
C1354       C  0.40237950  0.61768950  0.35392366    -0.32890
C1355       C  0.42457033  0.59166616  0.37315319     0.36360
C1356       C  0.40355277  0.58630476  0.39832907    -0.05810
C1357       C  0.36196093  0.60964409  0.40402671    -0.32780
C1358       C  0.33950965  0.63508383  0.38463287     0.36270
H1359       H  0.41663630  0.61816102  0.33412205     0.16640
O1360       O  0.46415054  0.56858558  0.36624215    -0.60280
H1361       H  0.34558376  0.60694041  0.42329923     0.16660
O1362       O  0.29670934  0.65449144  0.39021429    -0.60380
H1363       H  0.27220188  0.63176693  0.38935479     0.43650
H1364       H  0.49057822  0.58959539  0.36459110     0.43610
C1365       C  0.09966057  0.66202207  0.39582152    -0.05460
C1366       C  0.14236702  0.67184059  0.38259601    -0.32890
C1367       C  0.15602803  0.64918019  0.36078079     0.36360
C1368       C  0.12660835  0.61623212  0.35194958    -0.05810
C1369       C  0.08294939  0.60742590  0.36466236    -0.32780
C1370       C  0.06953432  0.62999774  0.38673037     0.36270
H1371       H  0.16564353  0.69653467  0.38954685     0.16640
O1372       O  0.19841204  0.65929147  0.34835309    -0.60280
H1373       H  0.06003996  0.58230668  0.35794220     0.16660
O1374       O  0.02764048  0.61991760  0.39965485    -0.60380
H1375       H  0.00332144  0.63955755  0.39187259     0.43650
H1376       H  0.18959427  0.67895903  0.33352963     0.43610
C1377       C  0.37216047  0.25795432  0.09612112    -0.05460
C1378       C  0.37458031  0.27460564  0.12103696    -0.32890
C1379       C  0.35517769  0.25222093  0.14277394     0.36360
C1380       C  0.33407507  0.21162011  0.13988736    -0.05810
C1381       C  0.32685847  0.19736193  0.11451261    -0.32780
C1382       C  0.34564938  0.22030308  0.09268044     0.36270
H1383       H  0.39529480  0.30315897  0.12404187     0.16640
O1384       O  0.36053457  0.26901024  0.16697493    -0.60280
H1385       H  0.30970471  0.16700188  0.11163072     0.16660
O1386       O  0.34206900  0.20360548  0.06829919    -0.60380
H1387       H  0.36657113  0.18069593  0.06780095     0.43650
H1388       H  0.33137286  0.28647985  0.16963630     0.43610
C1389       C  0.11730638  0.99906812  0.10096564    -0.05460
C1390       C  0.08181756  0.01342549  0.11841597    -0.32890
C1391       C  0.09369919  0.03821251  0.13970521     0.36360
C1392       C  0.14178558  0.04881714  0.14397597    -0.05810
C1393       C  0.17697026  0.03476716  0.12624405    -0.32780
C1394       C  0.16524828  0.00975256  0.10525552     0.36270
H1395       H  0.04447997  0.00583608  0.11546626     0.16640
O1396       O  0.05806609  0.05151637  0.15611163    -0.60280
H1397       H  0.21442758  0.04220767  0.12888465     0.16660
O1398       O  0.20125959  0.99550140  0.08939300    -0.60380
H1399       H  0.21018454  0.96702997  0.09692597     0.43650
H1400       H  0.04758431  0.07955679  0.14858747     0.43610
C1401       C  0.24865826  0.82282305  0.25725494    -0.05460
C1402       C  0.28927802  0.84870272  0.25482441    -0.32890
C1403       C  0.28503655  0.89331368  0.25339626     0.36360
C1404       C  0.24002178  0.91341026  0.25573203    -0.05810
C1405       C  0.19946126  0.88746121  0.25965983    -0.32780
C1406       C  0.20342330  0.84259118  0.25982141     0.36270
H1407       H  0.32431629  0.83434117  0.25253443     0.16640
O1408       O  0.32538676  0.91711233  0.24923472    -0.60280
H1409       H  0.16435962  0.90187025  0.26140970     0.16660
O1410       O  0.16285505  0.81830209  0.26262343    -0.60380
H1411       H  0.14942918  0.81720646  0.24475116     0.43650
H1412       H  0.33009139  0.91816020  0.22995286     0.43610
C1413       C  0.25688032  0.32738337  0.23189228    -0.05460
C1414       C  0.20923031  0.34168905  0.23103640    -0.32890
C1415       C  0.19852470  0.38497205  0.23237577     0.36360
C1416       C  0.23589421  0.41425567  0.23517524    -0.05810
C1417       C  0.28361258  0.40043476  0.23337340    -0.32780
C1418       C  0.29436002  0.35714760  0.23157017     0.36270
H1419       H  0.18004465  0.31897116  0.23103551     0.16640
O1420       O  0.15155600  0.39751440  0.23391844    -0.60280
H1421       H  0.31263617  0.42301594  0.23485393     0.16660
O1422       O  0.34130176  0.34420068  0.23174953    -0.60380
H1423       H  0.35030622  0.34214557  0.25049495     0.43650
H1424       H  0.14068767  0.40035589  0.21550161     0.43610
C1425       C  0.39769042  0.06432142  0.39118123    -0.05460
C1426       C  0.41706045  0.05817227  0.36626320    -0.32890
C1427       C  0.40181449  0.08275689  0.34459795     0.36360
C1428       C  0.36640790  0.11447368  0.34766511    -0.05810
C1429       C  0.34577982  0.11960816  0.37249041    -0.32780
C1430       C  0.36102476  0.09479336  0.39417417     0.36270
H1431       H  0.44469796  0.03437815  0.36356692     0.16640
O1432       O  0.42039761  0.07397695  0.32046507    -0.60280
H1433       H  0.31811455  0.14337592  0.37517529     0.16660
O1434       O  0.34170858  0.10234528  0.41832955    -0.60380
H1435       H  0.31244893  0.08453040  0.41958188     0.43650
H1436       H  0.45317566  0.08609317  0.32020769     0.43610
C1437       C  0.10119340  0.14393328  0.40163275    -0.05460
C1438       C  0.07851104  0.15261819  0.37752764    -0.32890
C1439       C  0.09076573  0.12983390  0.35517429     0.36360
C1440       C  0.12646086  0.09790932  0.35658436    -0.05810
C1441       C  0.14615388  0.08699942  0.38101409    -0.32780
C1442       C  0.13410687  0.10952394  0.40332414     0.36270
H1443       H  0.05287628  0.17850331  0.37567775     0.16640
O1444       O  0.07219834  0.14273059  0.33140460    -0.60280
H1445       H  0.17512253  0.06395771  0.38229211     0.16660
O1446       O  0.15909716  0.10055859  0.42584029    -0.60380
H1447       H  0.14511042  0.07366921  0.43324201     0.43650
H1448       H  0.04567264  0.12263531  0.32830537     0.43610
C1449       C  0.64632174  0.72351648  0.10121299    -0.05460
C1450       C  0.67181743  0.76207096  0.09792717    -0.32890
C1451       C  0.68305148  0.78664096  0.11955786     0.36360
C1452       C  0.66987709  0.77220230  0.14506495    -0.05810
C1453       C  0.64993474  0.73105907  0.14830148    -0.32780
C1454       C  0.63797332  0.70707077  0.12671216     0.36270
H1455       H  0.67768073  0.77575064  0.07838061     0.16640
O1456       O  0.70418323  0.82571491  0.11532159    -0.60280
H1457       H  0.64037785  0.71816848  0.16752290     0.16660
O1458       O  0.61239579  0.67012646  0.13070259    -0.60380
H1459       H  0.63663988  0.64698381  0.13076333     0.43650
H1460       H  0.67754389  0.84561274  0.11091788     0.43610
C1461       C  0.85173339  0.96481508  0.14387002    -0.05460
C1462       C  0.82771200  0.97141948  0.11988940    -0.32890
C1463       C  0.84586027  0.99933082  0.10019358     0.36360
C1464       C  0.88905700  0.02109145  0.10408490    -0.05810
C1465       C  0.91039251  0.01788115  0.12892909    -0.32780
C1466       C  0.89258944  0.98967423  0.14856774     0.36270
H1467       H  0.79605364  0.95315965  0.11567495     0.16640
O1468       O  0.82460718  0.00057996  0.07607094    -0.60280
H1469       H  0.94425544  0.03363065  0.13211468     0.16660
O1470       O  0.91652402  0.98570301  0.17186825    -0.60380
H1471       H  0.94252699  0.96483139  0.16879987     0.43650
H1472       H  0.80321122  0.02584445  0.07609619     0.43610
C1473       C  0.95123394  0.76742747  0.24710750    -0.05460
C1474       C  0.94836623  0.72276394  0.24939985    -0.32890
C1475       C  0.98986282  0.69762310  0.24930737     0.36360
C1476       C  0.03505546  0.71721356  0.24682192    -0.05810
C1477       C  0.03783891  0.76185924  0.24537977    -0.32780
C1478       C  0.99652281  0.78696374  0.24549335     0.36270
H1479       H  0.91377372  0.70725566  0.25087890     0.16640
O1480       O  0.98563040  0.65406052  0.25043651    -0.60280
H1481       H  0.07225332  0.77759065  0.24422528     0.16660
O1482       O  0.00106038  0.83048714  0.24536142    -0.60380
H1483       H  0.01049541  0.83904603  0.22717210     0.43650
H1484       H  0.98403516  0.64605079  0.26937734     0.43610
C1485       C  0.45813930  0.02080600  0.24839244    -0.05460
C1486       C  0.50328197  0.03960736  0.24471394    -0.32890
C1487       C  0.54475117  0.01420080  0.24413987     0.36360
C1488       C  0.54159364  0.96961191  0.24864607    -0.05810
C1489       C  0.49685722  0.95146635  0.25407187    -0.32780
C1490       C  0.45540232  0.97642978  0.25333250     0.36270
H1491       H  0.50621344  0.07367518  0.24080722     0.16640
O1492       O  0.58803014  0.03323306  0.23896036    -0.60280
H1493       H  0.49337409  0.91733181  0.25743275     0.16660
O1494       O  0.41214294  0.95677711  0.25692950    -0.60380
H1495       H  0.40872589  0.93913219  0.24133816     0.43650
H1496       H  0.58959388  0.03732311  0.21963727     0.43610
C1497       C  0.63143351  0.86322944  0.35350264    -0.05460
C1498       C  0.60056091  0.89848620  0.35078232    -0.32890
C1499       C  0.58637099  0.92116345  0.37279158     0.36360
C1500       C  0.60298267  0.90843923  0.39794637    -0.05810
C1501       C  0.63208459  0.87199130  0.40052517    -0.32780
C1502       C  0.64618351  0.84955011  0.37869925     0.36270
H1503       H  0.58911659  0.90959691  0.33149500     0.16640
O1504       O  0.55750781  0.95630790  0.36933027    -0.60280
H1505       H  0.64527273  0.86110610  0.41945962     0.16660
O1506       O  0.67551818  0.81471196  0.38222169    -0.60380
H1507       H  0.65367808  0.78984222  0.38340590     0.43650
H1508       H  0.52434219  0.94538865  0.37130481     0.43610
C1509       C  0.91125839  0.84202430  0.39141609    -0.05460
C1510       C  0.87039612  0.86683070  0.39625678    -0.32890
C1511       C  0.85069883  0.89353805  0.37652004     0.36360
C1512       C  0.87164379  0.89602945  0.35133454    -0.05810
C1513       C  0.91443431  0.87384887  0.34699811    -0.32780
C1514       C  0.93412387  0.84682961  0.36665653     0.36270
H1515       H  0.85248409  0.86438901  0.41512828     0.16640
O1516       O  0.80786385  0.91347439  0.38116156    -0.60280
H1517       H  0.92980943  0.87368967  0.32745600     0.16660
O1518       O  0.97291638  0.82216665  0.36048439    -0.60380
H1519       H  0.00040306  0.84211039  0.35922325     0.43650
H1520       H  0.81651507  0.94270405  0.38614034     0.43610
C1521       C  0.65392983  0.27863618  0.14629020    -0.05460
C1522       C  0.65045372  0.30213280  0.12240521    -0.32890
C1523       C  0.63666498  0.28235452  0.09941256     0.36360
C1524       C  0.62608737  0.23845927  0.10004537    -0.05810
C1525       C  0.63083318  0.21471486  0.12356324    -0.32780
C1526       C  0.64553009  0.23414636  0.14640942     0.36270
H1527       H  0.65713578  0.33615231  0.12166583     0.16640
O1528       O  0.63229508  0.30643422  0.07660341    -0.60280
H1529       H  0.62332877  0.18081941  0.12419189     0.16660
O1530       O  0.65170909  0.20903223  0.16863297    -0.60380
H1531       H  0.68632817  0.20191824  0.16892350     0.43650
H1532       H  0.59822045  0.31537089  0.07600135     0.43610
C1533       C  0.89310606  0.48570346  0.10451333    -0.05460
C1534       C  0.85999985  0.45322463  0.10009943    -0.32890
C1535       C  0.84295348  0.42709577  0.12074148     0.36360
C1536       C  0.85896938  0.43320771  0.14635625    -0.05810
C1537       C  0.89385513  0.46431684  0.15067173    -0.32780
C1538       C  0.91088979  0.49056555  0.12992785     0.36270
H1539       H  0.84737308  0.44755380  0.08055331     0.16640
O1540       O  0.81146120  0.39496044  0.11562834    -0.60280
H1541       H  0.90648678  0.46954682  0.17029030     0.16660
O1542       O  0.94414368  0.52133040  0.13478801    -0.60380
H1543       H  0.92524448  0.54723761  0.13854267     0.43650
H1544       H  0.78153020  0.40937448  0.10979156     0.43610
C1545       C  0.04161313  0.22350056  0.24878750    -0.05460
C1546       C  0.04239484  0.26828152  0.24895595    -0.32890
C1547       C  0.99990364  0.29220957  0.24984955     0.36360
C1548       C  0.95508443  0.27152340  0.25117388    -0.05810
C1549       C  0.95415558  0.22672387  0.25087795    -0.32780
C1550       C  0.99677662  0.20280765  0.24926892     0.36270
H1551       H  0.07624912  0.28506541  0.24856351     0.16640
O1552       O  0.00291635  0.33571433  0.25106226    -0.60280
H1553       H  0.92018241  0.21013564  0.25183942     0.16660
O1554       O  0.99412452  0.15917687  0.24946472    -0.60380
H1555       H  0.99023682  0.15199385  0.23085707     0.43650
H1556       H  0.01116605  0.34601803  0.23301036     0.43610
C1557       C  0.74138931  0.56914715  0.24932144    -0.05460
C1558       C  0.69724358  0.58758039  0.25585218    -0.32890
C1559       C  0.69205295  0.63188324  0.25592685     0.36360
C1560       C  0.73131919  0.65801547  0.24922901    -0.05810
C1561       C  0.77519257  0.63952461  0.24227944    -0.32780
C1562       C  0.78038640  0.59530254  0.24223309     0.36270
H1563       H  0.66691261  0.56752341  0.26117703     0.16640
O1564       O  0.64960413  0.64919590  0.26411352    -0.60280
H1565       H  0.80558229  0.65949052  0.23691157     0.16660
O1566       O  0.82277079  0.57801539  0.23392159    -0.60380
H1567       H  0.84361743  0.57698774  0.24955168     0.43650
H1568       H  0.62931715  0.65114288  0.24827388     0.43610
C1569       C  0.74009102  0.15818296  0.24998589    -0.05460
C1570       C  0.70745546  0.13113061  0.26307827    -0.32890
C1571       C  0.71376062  0.08706720  0.26277622     0.36360
C1572       C  0.75227976  0.07000574  0.24878415    -0.05810
C1573       C  0.78552970  0.09701812  0.23609382    -0.32780
C1574       C  0.77992992  0.14117613  0.23694656     0.36270
H1575       H  0.67803184  0.14421324  0.27420210     0.16640
O1576       O  0.68353711  0.06084774  0.27714476    -0.60280
H1577       H  0.81506587  0.08388302  0.22508241     0.16660
O1578       O  0.81251409  0.16749111  0.22431688    -0.60380
H1579       H  0.83923762  0.17022701  0.23681020     0.43650
H1580       H  0.65486260  0.05792208  0.26613950     0.43610
C1581       C  0.44523678  0.50943026  0.25071544    -0.05460
C1582       C  0.49017926  0.52909454  0.24757738    -0.32890
C1583       C  0.53238635  0.50463905  0.24609689     0.36360
C1584       C  0.53029692  0.45966176  0.24806915    -0.05810
C1585       C  0.48547730  0.44005393  0.25070000    -0.32780
C1586       C  0.44330226  0.46431114  0.25177117     0.36270
H1587       H  0.49277159  0.56356144  0.24676224     0.16640
O1588       O  0.57564610  0.52509755  0.24391887    -0.60280
H1589       H  0.48287482  0.40558456  0.25141158     0.16660
O1590       O  0.40026971  0.44336342  0.25257553    -0.60380
H1591       H  0.39841363  0.42904952  0.27018588     0.43650
H1592       H  0.57982257  0.53206744  0.22495436     0.43610
C1593       C  0.62545287  0.36103669  0.35558664    -0.05460
C1594       C  0.61145780  0.40391617  0.35279236    -0.32890
C1595       C  0.59879616  0.42708440  0.37482909     0.36360
C1596       C  0.59928799  0.40703355  0.40004156    -0.05810
C1597       C  0.61108261  0.36345822  0.40239251    -0.32780
C1598       C  0.62437167  0.34067833  0.38047485     0.36270
H1599       H  0.61291099  0.42009537  0.33370046     0.16640
O1600       O  0.58778152  0.46955335  0.37153645    -0.60280
H1601       H  0.61105145  0.34690817  0.42133658     0.16660
O1602       O  0.63781511  0.29874970  0.38368428    -0.60380
H1603       H  0.60822101  0.28217137  0.38089294     0.43650
H1604       H  0.61886965  0.48463641  0.37237703     0.43610
C1605       C  0.91165990  0.33949747  0.39381420    -0.05460
C1606       C  0.87228475  0.36521996  0.40026188    -0.32890
C1607       C  0.85151674  0.39314424  0.38154155     0.36360
C1608       C  0.86979748  0.39585946  0.35579236    -0.05810
C1609       C  0.91170451  0.37320777  0.34994160    -0.32780
C1610       C  0.93228381  0.34482541  0.36855130     0.36270
H1611       H  0.85620864  0.36252760  0.41960920     0.16640
O1612       O  0.80999584  0.41404830  0.38775753    -0.60280
H1613       H  0.92527673  0.37362617  0.33000032     0.16660
O1614       O  0.97039067  0.32033318  0.36109407    -0.60380
H1615       H  0.95608464  0.29400151  0.35438875     0.43650
H1616       H  0.82028196  0.44277244  0.39289518     0.43610
loop_ 
_geom_bond_atom_site_label_1 
_geom_bond_atom_site_label_2 
_geom_bond_distance 
_geom_bond_site_symmetry_2 
_ccdc_geom_bond_type 
C1           N19   1.338       .  A
C1           C38   1.480       .  S
C1         C1608   1.472       .  S
N2           N19   1.314       .  A
N2           N24   1.316       .  A
N2          Co39   2.048       .  S
C3           N28   1.333       .  A
C3           C41   1.456       .  S
C3           H48   1.081       .  S
H4           C45   1.081       .  S
C5           N29   1.346       .  A
C5            C9   1.469       .  S
C5           H34   1.081       .  S
Co6          N24   2.110       .  S
Co6          N14   2.098       .  S
Co6          N46   2.081       .  S
Co6          N22   2.087       .  S
Co6         Cl50   2.478       .  S
N7           C45   1.333       .  A
N7           N14   1.324       .  A
N7           Co8   2.073       .  S
Co8          N11   2.078       .  S
Co8          N28   2.064       .  S
Co8          N15   2.102       .  S
Co8         Cl50   2.424       .  S
C9           N47   1.348       .  A
C9         C1584   1.487       .  S
N10          N17   1.320       .  A
N10          N40   1.327       .  A
N10         Co43   2.083       .  S
N11          N29   1.317       .  A
N11          N47   1.325       .  A
N12          C41   1.352       .  A
N12          N22   1.324       .  A
H13          C38   1.081       .  S
N14          N35   1.326       .  A
N15          N33   1.318       .  A
N15          N20   1.329       .  A
C16          N20   1.357       .  A
C16          C44   1.462       .  S
C16        C1521   1.491       .  S
N17          C32   1.338       .  A
N17         Co39   2.087       .  S
C18          N46   1.341       .  A
C18          C21   1.464       .  S
C18          H52   1.081       .  S
C21          N42   1.356       .  A
C21        C1548   1.493       .  S
N22          N28   1.320       .  A
N23          C49   1.331       .  A
N23          N25   1.318       .  A
N23         Co39   2.038       .  S
N24          C38   1.352       .  A
N25          N53   1.325       .  A
N25         Co43   2.095       .  S
H26          C49   1.081       .  S
H27          C44   1.080       .  S
N29         Co43   2.095       .  S
N30          N42   1.330       .  A
N30          N46   1.320       .  A
N30         Co39   2.116       .  S
C31          N35   1.353       .  A
C31          C45   1.445       .  S
C31        C1557   1.462       .  S
C32          C51   1.453       .  S
C32          H36   1.081       .  S
N33          C44   1.337       .  A
N33         Co43   2.079       .  S
C37          N53   1.351       .  A
C37          C49   1.442       .  S
C37        C1569   1.453       .  S
Co39        Cl50   2.418       .  S
N40          C51   1.351       .  A
C41        C1536   1.471       .  S
Co43        Cl50   2.470       .  S
C51        C1593   1.470       .  S
C54          N72   1.346       .  A
C54          C91   1.465       .  S
C54        C1488   1.479       .  S
N55          N72   1.324       .  A
N55          N77   1.315       .  A
N55         Co92   2.071       .  S
C56          N81   1.331       .  A
C56          C94   1.445       .  S
C56         H101   1.081       .  S
H57          C98   1.080       .  S
C58          N82   1.354       .  A
C58          C62   1.482       .  S
C58          H87   1.081       .  S
Co59         N77   2.078       .  S
Co59         N67   2.086       .  S
Co59         N99   2.077       .  S
Co59         N75   2.093       .  S
Co59       Cl103   2.473       .  S
N60          C98   1.335       .  A
N60          N67   1.318       .  A
N60         Co61   2.078       .  S
Co61         N64   2.036       .  S
Co61         N81   2.039       .  S
Co61         N68   2.093       .  S
Co61       Cl103   2.407       .  S
C62         N100   1.335       .  A
C62        C1512   1.472       .  S
N63          N70   1.325       .  A
N63          N93   1.324       .  A
N63         Co96   2.077       .  S
N64          N82   1.315       .  A
N64         N100   1.313       .  A
N65          C94   1.353       .  A
N65          N75   1.327       .  A
H66          C91   1.081       .  S
N67          N88   1.328       .  A
N68          N86   1.322       .  A
N68          N73   1.323       .  A
C69          N73   1.348       .  A
C69          C97   1.462       .  S
C69        C1473   1.474       .  S
N70          C85   1.334   1_565  A
N70         Co92   2.089       .  S
C71          N99   1.335       .  A
C71          C74   1.457       .  S
C71         H105   1.080       .  S
C74          N95   1.361       .  A
C74        C1452   1.496       .  S
N75          N81   1.316       .  A
N76         C102   1.336       .  A
N76          N78   1.320       .  A
N76         Co92   2.059       .  S
N77          C91   1.342       .  A
N78         N106   1.329       .  A
N78         Co96   2.110       .  S
H79         C102   1.081       .  S
H80          C97   1.081       .  S
N82         Co96   2.119       .  S
N83          N95   1.332       .  A
N83          N99   1.321       .  A
N83         Co92   2.119       .  S
C84          N88   1.354       .  A
C84          C98   1.453       .  S
C84        C1497   1.477       .  S
C85         C104   1.448       .  S
C85          H89   1.081       .  S
N86          C97   1.338       .  A
N86         Co96   2.074       .  S
C90         N106   1.357       .  A
C90         C102   1.455       .  S
C90        C1461   1.493       .  S
Co92       Cl103   2.419       .  S
N93         C104   1.347   1_565  A
C94        C1560   1.462       .  S
Co96       Cl103   2.482       .  S
C104       C1572   1.453       .  S
C107        N125   1.357       .  A
C107        C144   1.461       .  S
C107       C1545   1.494       .  S
N108        N125   1.330       .  A
N108        N130   1.323       .  A
N108       Co145   2.105       .  S
C109        N134   1.335       .  A
C109        C147   1.459       .  S
C109        H154   1.079       .  S
H110        C151   1.080       .  S
C111        N135   1.351       .  A
C111        C115   1.476       .  S
C111        H140   1.081       .  S
Co112       N130   2.100       .  S
Co112       N120   2.052       .  S
Co112       N152   2.039       .  S
Co112       N128   2.090       .  S
Co112      Cl156   2.401       .  S
N113        C151   1.344       .  A
N113        N120   1.315       .  A
N113       Co114   2.078       .  S
Co114       N117   2.053       .  S
Co114       N134   2.056       .  S
Co114       N121   2.093       .  S
Co114      Cl156   2.494       .  S
C115        N153   1.343       .  A
C115       C1380   1.489       .  S
N116        N123   1.319       .  A
N116        N146   1.313       .  A
N116       Co149   2.044       .  S
N117        N135   1.318       .  A
N117        N153   1.319       .  A
N118        C147   1.351       .  A
N118        N128   1.324       .  A
H119        C144   1.081       .  S
N120        N141   1.317       .  A
N121        N139   1.316       .  A
N121        N126   1.329       .  A
C122        N126   1.355       .  A
C122        C150   1.455       .  S
C122       C1485   1.480       .  S
N123        C138   1.351       .  A
N123       Co145   2.113       .  S
C124        N152   1.325       .  A
C124        C127   1.439       .  S
C124        H158   1.082       .  S
C127        N148   1.364       .  A
C127       C1440   1.475       .  S
N128        N134   1.316       .  A
N129        C155   1.350   1_545  A
N129        N131   1.326       .  A
N129       Co145   2.116       .  S
N130        C144   1.340       .  A
N131        N159   1.325   1_545  A
N131       Co149   2.112       .  S
H132        C155   1.081       .  S
H133        C150   1.081       .  S
N135       Co149   2.120       .  S
N136        N148   1.334       .  A
N136        N152   1.318       .  A
N136       Co145   2.127       .  S
C137        N141   1.343       .  A
C137        C151   1.461       .  S
C137       C1413   1.463       .  S
C138        C157   1.479       .  S
C138        H142   1.081       .  S
N139        C150   1.336       .  A
N139       Co149   2.069       .  S
C143        N159   1.351       .  A
C143        C155   1.472       .  S
C143       C1404   1.498       .  S
Co145      Cl156   2.497       .  S
N146        C157   1.339       .  A
C147       C1428   1.477       .  S
Co149      Cl156   2.405       .  S
C157       C1392   1.484       .  S
C160        N178   1.360       .  A
C160        C197   1.458       .  S
C160       C1581   1.494       .  S
N161        N178   1.332       .  A
N161        N183   1.321       .  A
N161       Co198   2.115       .  S
C162        N187   1.343       .  A
C162        C200   1.461       .  S
C162        H207   1.081       .  S
H163        C204   1.080       .  S
C164        N188   1.352       .  A
C164        C168   1.478       .  S
C164        H193   1.080       .  S
Co165       N183   2.084       .  S
Co165       N173   2.057       .  S
Co165       N205   2.047       .  S
Co165       N181   2.075       .  S
Co165      Cl209   2.411       .  S
N166        C204   1.341       .  A
N166        N173   1.315       .  A
N166       Co167   2.076       .  S
Co167       N170   2.065       .  S
Co167       N187   2.078       .  S
Co167       N174   2.074       .  S
Co167      Cl209   2.476       .  S
C168        N206   1.343       .  A
C168       C1341   1.492       .  S
N169        N176   1.319       .  A
N169        N199   1.318       .  A
N169       Co202   2.062       .  S
N170        N188   1.319       .  A
N170        N206   1.318       .  A
N171        C200   1.345       .  A
N171        N181   1.319       .  A
H172        C197   1.080       .  S
N173        N194   1.320       .  A
N174        N192   1.316       .  A
N174        N179   1.325       .  A
C175        N179   1.351       .  A
C175        C203   1.455       .  S
C175       C1476   1.474       .  S
N176        C191   1.346       .  A
N176       Co198   2.093       .  S
C177        N205   1.327       .  A
C177        C180   1.446       .  S
C177        H211   1.082       .  S
C180        N201   1.362       .  A
C180       C1353   1.470       .  S
N181        N187   1.317       .  A
N182        C208   1.349       .  A
N182        N184   1.325       .  A
N182       Co198   2.120       .  S
N183        C197   1.336       .  A
N184        N212   1.326       .  A
N184       Co202   2.101       .  S
H185        C208   1.082       .  S
H186        C203   1.081       .  S
N188       Co202   2.117       .  S
N189        N201   1.330       .  A
N189        N205   1.316       .  A
N189       Co198   2.109       .  S
C190        N194   1.345       .  A
C190        C204   1.457       .  S
C190       C1416   1.464       .  S
C191        C210   1.468       .  S
C191        H195   1.081       .  S
N192        C203   1.335       .  A
N192       Co202   2.071       .  S
C196        N212   1.349       .  A
C196        C208   1.472       .  S
C196       C1401   1.490       .  S
Co198      Cl209   2.489       .  S
N199        C210   1.344       .  A
C200       C1368   1.467       .  S
Co202      Cl209   2.417       .  S
C210       C1332   1.475       .  S
C213        N231   1.350       .  A
C213        C250   1.458       .  S
C213       C1524   1.476       .  S
N214        N231   1.326       .  A
N214        N236   1.319       .  A
N214       Co251   2.094       .  S
C215        N240   1.351       .  A
C215        C253   1.475       .  S
C215        H260   1.081       .  S
H216        C257   1.081       .  S
C217        N241   1.343   1_554  A
C217        C221   1.466   1_554  S
C217        H246   1.081       .  S
Co218       N236   2.086   1_556  S
Co218       N226   2.072       .  S
Co218       N258   2.079       .  S
Co218       N234   2.081       .  S
Co218      Cl262   2.477       .  S
N219        C257   1.338       .  A
N219        N226   1.314       .  A
N219       Co220   2.069       .  S
Co220       N223   2.106       .  S
Co220       N240   2.122       .  S
Co220       N227   2.056       .  S
Co220      Cl262   2.419       .  S
C221        N259   1.350       .  A
C221       C1296   1.482   1_556  S
N222        N229   1.316       .  A
N222        N252   1.330       .  A
N222       Co255   2.106   1_554  S
N223        N241   1.325       .  A
N223        N259   1.325       .  A
N224        C253   1.348       .  A
N224        N234   1.323       .  A
H225        C250   1.081       .  S
N226        N247   1.325   1_556  A
N227        N245   1.321       .  A
N227        N232   1.320       .  A
C228        N232   1.342       .  A
C228        C256   1.473       .  S
C228       C1272   1.488       .  S
N229        C244   1.328       .  A
N229       Co251   2.043       .  S
C230        N258   1.343       .  A
C230        C233   1.463       .  S
C230        H264   1.080       .  S
C233        N254   1.344   1_556  A
C233       C1305   1.470       .  S
N234        N240   1.321       .  A
N235        C261   1.338       .  A
N235        N237   1.324   1_554  A
N235       Co251   2.096       .  S
N236        C250   1.344       .  A
N237        N265   1.330       .  A
N237       Co255   2.112       .  S
H238        C261   1.081       .  S
H239        C256   1.081       .  S
N241       Co255   2.100       .  S
N242        N254   1.319       .  A
N242        N258   1.315   1_554  A
N242       Co251   2.055       .  S
C243        N247   1.350   1_556  A
C243        C257   1.455       .  S
C243       C1317   1.474   1_556  S
C244        C263   1.448       .  S
C244        H248   1.082       .  S
N245        C256   1.348       .  A
N245       Co255   2.108       .  S
C249        N265   1.360       .  A
C249        C261   1.459   1_556  S
C249       C1281   1.495       .  S
Co251      Cl262   2.412   1_554  S
N252        C263   1.358       .  A
C253       C1260   1.498       .  S
Co255      Cl262   2.484       .  S
C263       C1377   1.472       .  S
C266        N284   1.350       .  A
C266        C303   1.463       .  S
C266       C1329   1.480       .  S
N267        N284   1.324       .  A
N267        N289   1.316       .  A
N267       Co304   2.084       .  S
C268        N293   1.347       .  A
C268        C306   1.472       .  S
C268        H313   1.081       .  S
H269        C310   1.081       .  S
C270        N294   1.348   1_554  A
C270        C274   1.472       .  S
C270        H299   1.081       .  S
Co271       N289   2.067   1_556  S
Co271       N279   2.085       .  S
Co271       N311   2.086       .  S
Co271       N287   2.057       .  S
Co271      Cl315   2.486       .  S
N272        C310   1.336       .  A
N272        N279   1.315       .  A
N272       Co273   2.067       .  S
Co273       N276   2.093       .  S
Co273       N293   2.106       .  S
Co273       N280   2.060       .  S
Co273      Cl315   2.410       .  S
C274        N312   1.347   1_554  A
C274       C1293   1.485       .  S
N275        N282   1.316       .  A
N275        N305   1.333       .  A
N275       Co308   2.124   1_554  S
N276        N294   1.326       .  A
N276        N312   1.321       .  A
N277        C306   1.342       .  A
N277        N287   1.316       .  A
H278        C303   1.081       .  S
N279        N300   1.327   1_556  A
N280        N298   1.323       .  A
N280        N285   1.321       .  A
C281        N285   1.342       .  A
C281        C309   1.476       .  S
C281       C1209   1.492       .  S
N282        C297   1.325       .  A
N282       Co304   2.035       .  S
C283        N311   1.346       .  A
C283        C286   1.465       .  S
C283        H317   1.081       .  S
C286        N307   1.342   1_556  A
C286       C1308   1.468       .  S
N287        N293   1.320       .  A
N288        C314   1.336       .  A
N288        N290   1.324   1_554  A
N288       Co304   2.094       .  S
N289        C303   1.338       .  A
N290        N318   1.333       .  A
N290       Co308   2.119       .  S
H291        C314   1.080       .  S
H292        C309   1.081       .  S
N294       Co308   2.111       .  S
N295        N307   1.318       .  A
N295        N311   1.315   1_554  A
N295       Co304   2.050       .  S
C296        N300   1.355   1_556  A
C296        C310   1.458       .  S
C296       C1233   1.485       .  S
C297        C316   1.442       .  S
C297        H301   1.082       .  S
N298        C309   1.351       .  A
N298       Co308   2.121       .  S
C302        N318   1.361       .  A
C302        C314   1.458   1_556  S
C302       C1245   1.497       .  S
Co304      Cl315   2.404   1_554  S
N305        C316   1.363       .  A
C306       C1221   1.481       .  S
Co308      Cl315   2.493       .  S
C316       C1449   1.476       .  S
C319        N337   1.342       .  A
C319        C356   1.471       .  S
C319       C1389   1.479       .  S
N320        N337   1.319       .  A
N320        N342   1.318       .  A
N320       Co357   2.066   1_455  S
C321        N346   1.351       .  A
C321        C359   1.476       .  S
C321        H366   1.081       .  S
H322        C363   1.081       .  S
C323        N347   1.344   1_554  A
C323        C327   1.472   1_654  S
C323        H352   1.080       .  S
Co324       N342   2.088   1_556  S
Co324       N332   2.105   1_565  S
Co324       N364   2.105       .  S
Co324       N340   2.070       .  S
Co324      Cl368   2.474       .  S
N325        C363   1.339       .  A
N325        N332   1.317       .  A
N325       Co326   2.076       .  S
Co326       N329   2.109       .  S
Co326       N346   2.123   1_545  S
Co326       N333   2.062   1_455  S
Co326      Cl368   2.425   1_545  S
C327        N365   1.353       .  A
C327       C1197   1.497   1_556  S
N328        N335   1.313   1_545  A
N328        N358   1.333       .  A
N328       Co361   2.117   1_554  S
N329        N347   1.324   1_455  A
N329        N365   1.326       .  A
N330        C359   1.345       .  A
N330        N340   1.321       .  A
H331        C356   1.080       .  S
N332        N353   1.330       .  A
N333        N351   1.319       .  A
N333        N338   1.319       .  A
C334        N338   1.344       .  A
C334        C362   1.465       .  S
C334       C1164   1.463       .  S
N335        C350   1.324       .  A
N335       Co357   2.034       .  S
C336        N364   1.350       .  A
C336        C339   1.472       .  S
C336        H370   1.081       .  S
C339        N360   1.337   1_456  A
C339       C1188   1.475       .  S
N340        N346   1.321       .  A
N341        C367   1.343       .  A
N341        N343   1.321       .  A
N341       Co357   2.102       .  S
N342        C356   1.344       .  A
N343        N371   1.329   1_554  A
N343       Co361   2.099   1_564  S
H344        C367   1.081       .  S
H345        C362   1.082       .  S
N347       Co361   2.104       .  S
N348        N360   1.313   1_455  A
N348        N364   1.315   1_554  A
N348       Co357   2.028   1_455  S
C349        N353   1.358       .  A
C349        C363   1.459       .  S
C349       C1284   1.495       .  S
C350        C369   1.441   1_565  S
C350        H354   1.082       .  S
N351        C362   1.343       .  A
N351       Co361   2.094       .  S
C355        N371   1.354       .  A
C355        C367   1.458   1_556  S
C355       C1248   1.481       .  S
Co357      Cl368   2.411   1_654  S
N358        C369   1.366       .  A
C359       C1173   1.493       .  S
Co361      Cl368   2.485   1_645  S
C369       C1464   1.475       .  S
C372        N390   1.349       .  A
C372        C409   1.458       .  S
C372       C1533   1.472       .  S
N373        N390   1.323       .  A
N373        N395   1.315       .  A
N373       Co410   2.078   1_655  S
C374        N399   1.348       .  A
C374        C412   1.472       .  S
C374        H419   1.081       .  S
H375        C416   1.081       .  S
C376        N400   1.348       .  A
C376        C380   1.468       .  S
C376        H405   1.081       .  S
Co377       N395   2.059   1_556  S
Co377       N385   2.084       .  S
Co377       N417   2.081       .  S
Co377       N393   2.051       .  S
Co377      Cl421   2.477   1_656  S
N378        C416   1.335       .  A
N378        N385   1.317       .  A
N378       Co379   2.069       .  S
Co379       N382   2.092   1_655  S
Co379       N399   2.102       .  S
Co379       N386   2.059   1_655  S
Co379      Cl421   2.415   1_656  S
C380        N418   1.345   1_454  A
C380       C1200   1.477       .  S
N381        N388   1.318       .  A
N381        N411   1.331       .  A
N381       Co414   2.115       .  S
N382        N400   1.325   1_556  A
N382        N418   1.323   1_455  A
N383        C412   1.342       .  A
N383        N393   1.316       .  A
H384        C409   1.081       .  S
N385        N406   1.326   1_556  A
N386        N404   1.320       .  A
N386        N391   1.319       .  A
C387        N391   1.343       .  A
C387        C415   1.469       .  S
C387       C1149   1.472       .  S
N388        C403   1.326       .  A
N388       Co410   2.046       .  S
C389        N417   1.343       .  A
C389        C392   1.460       .  S
C389        H423   1.080       .  S
C392        N413   1.343   1_656  A
C392       C1185   1.455       .  S
N393        N399   1.317       .  A
N394        C420   1.337       .  A
N394        N396   1.320       .  A
N394       Co410   2.081       .  S
N395        C409   1.335       .  A
N396        N424   1.326   1_554  A
N396       Co414   2.091       .  S
H397        C420   1.081       .  S
H398        C415   1.082       .  S
N400       Co414   2.110       .  S
N401        N413   1.319   1_655  A
N401        N417   1.315   1_554  A
N401       Co410   2.055   1_655  S
C402        N406   1.352       .  A
C402        C416   1.455   1_554  S
C402       C1320   1.475       .  S
C403        C422   1.445       .  S
C403        H407   1.082       .  S
N404        C415   1.343       .  A
N404       Co414   2.097   1_556  S
C408        N424   1.355   1_554  A
C408        C420   1.459       .  S
C408       C1236   1.485       .  S
Co410      Cl421   2.409       .  S
N411        C422   1.361       .  A
C412       C1140   1.481       .  S
Co414      Cl421   2.479       .  S
C422       C1344   1.472       .  S
C425        N443   1.336       .  A
C425        C462   1.482       .  S
C425       C1257   1.478       .  S
N426        N443   1.313       .  A
N426        N448   1.315       .  A
N426       Co463   2.040       .  S
C427        N452   1.334       .  A
C427        C465   1.457       .  S
C427        H472   1.081       .  S
H428        C469   1.081   1_565  S
C429        N453   1.347       .  A
C429        C433   1.471       .  S
C429        H458   1.081       .  S
Co430       N448   2.119       .  S
Co430       N438   2.099       .  S
Co430       N470   2.079       .  S
Co430       N446   2.099       .  S
Co430      Cl474   2.487       .  S
N431        C469   1.333       .  A
N431        N438   1.326       .  A
N431       Co432   2.082       .  S
Co432       N435   2.079       .  S
Co432       N452   2.058       .  S
Co432       N439   2.109       .  S
Co432      Cl474   2.420       .  S
C433        N471   1.349       .  A
C433       C1089   1.493       .  S
N434        N441   1.320       .  A
N434        N464   1.326       .  A
N434       Co467   2.085       .  S
N435        N453   1.315       .  A
N435        N471   1.325       .  A
N436        C465   1.356       .  A
N436        N446   1.327       .  A
H437        C462   1.081       .  S
N438        N459   1.326       .  A
N439        N457   1.320       .  A
N439        N444   1.330       .  A
C440        N444   1.358       .  A
C440        C468   1.457       .  S
C440       C1080   1.489       .  S
N441        C456   1.336       .  A
N441       Co463   2.078       .  S
C442        N470   1.341       .  A
C442        C445   1.463       .  S
C442        H476   1.081       .  S
C445        N466   1.353       .  A
C445       C1125   1.484       .  S
N446        N452   1.318       .  A
N447        C473   1.329       .  A
N447        N449   1.315       .  A
N447       Co463   2.033       .  S
N448        C462   1.355       .  A
N449        N477   1.325       .  A
N449       Co467   2.087       .  S
H450        C473   1.081       .  S
H451        C468   1.081       .  S
N453       Co467   2.092       .  S
N454        N466   1.327       .  A
N454        N470   1.322       .  A
N454       Co463   2.113       .  S
C455        N459   1.352   1_565  A
C455        C469   1.447   1_565  S
C455       C1104   1.462       .  S
C456        C475   1.449       .  S
C456        H460   1.081       .  S
N457        C468   1.336       .  A
N457       Co467   2.076       .  S
C461        N477   1.352       .  A
C461        C473   1.447       .  S
C461       C1113   1.463       .  S
Co463      Cl474   2.407       .  S
N464        C475   1.352       .  A
C465       C1065   1.483       .  S
Co467      Cl474   2.474       .  S
C475       C1161   1.462       .  S
C478        N496   1.333       .  A
C478        C515   1.487       .  S
C478       C1212   1.475       .  S
N479        N496   1.311       .  A
N479        N501   1.315       .  A
N479       Co516   2.029       .  S
C480        N505   1.335       .  A
C480        C518   1.455       .  S
C480        H525   1.081       .  S
H481        C522   1.081       .  S
C482        N506   1.350       .  A
C482        C486   1.473       .  S
C482        H511   1.080       .  S
Co483       N501   2.131       .  S
Co483       N491   2.088       .  S
Co483       N523   2.079       .  S
Co483       N499   2.116       .  S
Co483      Cl527   2.481       .  S
N484        C522   1.334       .  A
N484        N491   1.325       .  A
N484       Co485   2.082       .  S
Co485       N488   2.074       .  S
Co485       N505   2.062       .  S
Co485       N492   2.109       .  S
Co485      Cl527   2.420       .  S
C486        N524   1.347       .  A
C486       C1041   1.492       .  S
N487        N494   1.317       .  A
N487        N517   1.325       .  A
N487       Co520   2.064       .  S
N488        N506   1.315       .  A
N488        N524   1.322       .  A
N489        C518   1.357       .  A
N489        N499   1.329       .  A
H490        C515   1.081       .  S
N491        N512   1.324       .  A
N492        N510   1.319       .  A
N492        N497   1.331       .  A
C493        N497   1.360       .  A
C493        C521   1.452       .  S
C493       C1029   1.485       .  S
N494        C509   1.337       .  A
N494       Co516   2.085       .  S
C495        N523   1.341       .  A
C495        C498   1.468       .  S
C495        H529   1.080       .  S
C498        N519   1.355       .  A
C498       C1056   1.494       .  S
N499        N505   1.321       .  A
N500        C526   1.330       .  A
N500        N502   1.316       .  A
N500       Co516   2.031       .  S
N501        C515   1.357       .  A
N502        N530   1.326       .  A
N502       Co520   2.100       .  S
H503        C526   1.081       .  S
H504        C521   1.080       .  S
N506       Co520   2.098       .  S
N507        N519   1.326       .  A
N507        N523   1.320       .  A
N507       Co516   2.112       .  S
C508        N512   1.351       .  A
C508        C522   1.449       .  S
C508       C1116   1.462       .  S
C509        C528   1.454       .  S
C509        H513   1.081       .  S
N510        C521   1.332       .  A
N510       Co520   2.063       .  S
C514        N530   1.354       .  A
C514        C526   1.444       .  S
C514       C1101   1.461       .  S
Co516      Cl527   2.411       .  S
N517        C528   1.348       .  A
C518       C1020   1.486       .  S
Co520      Cl527   2.473       .  S
C528       C1137   1.467       .  S
C531        N549   1.333       .  A
C531        C568   1.484       .  S
C531       C1269   1.469       .  S
N532        N549   1.310       .  A
N532        N554   1.314       .  A
N532       Co569   2.031       .  S
C533        N558   1.331       .  A
C533        C571   1.450       .  S
C533        H578   1.081       .  S
H534        C575   1.081       .  S
C535        N559   1.350       .  A
C535        C539   1.469       .  S
C535        H564   1.081       .  S
Co536       N554   2.118       .  S
Co536       N544   2.088       .  S
Co536       N576   2.090       .  S
Co536       N552   2.113       .  S
Co536      Cl580   2.492       .  S
N537        C575   1.337       .  A
N537        N544   1.324       .  A
N537       Co538   2.094       .  S
Co538       N541   2.065       .  S
Co538       N558   2.052       .  S
Co538       N545   2.112       .  S
Co538      Cl580   2.408       .  S
C539        N577   1.343       .  A
C539       C1044   1.474       .  S
N540        N547   1.316       .  A
N540        N570   1.326       .  A
N540       Co573   2.084       .  S
N541        N559   1.317       .  A
N541        N577   1.321       .  A
N542        C571   1.359       .  A
N542        N552   1.329       .  A
H543        C568   1.081       .  S
N544        N565   1.325       .  A
N545        N563   1.320       .  A
N545        N550   1.331       .  A
C546        N550   1.356       .  A
C546        C574   1.453       .  S
C546        C981   1.476       .  S
N547        C562   1.334       .  A
N547       Co569   2.069       .  S
C548        N576   1.346       .  A
C548        C551   1.468       .  S
C548        H582   1.081       .  S
C551        N572   1.349       .  A
C551       C1128   1.485       .  S
N552        N558   1.321       .  A
N553        C579   1.322       .  A
N553        N555   1.313       .  A
N553       Co569   2.020       .  S
N554        C568   1.355       .  A
N555        N583   1.329       .  A
N555       Co573   2.108       .  S
H556        C579   1.075       .  S
H557        C574   1.082       .  S
N559       Co573   2.102       .  S
N560        N572   1.324       .  A
N560        N576   1.321       .  A
N560       Co569   2.101       .  S
C561        N565   1.352       .  A
C561        C575   1.457       .  S
C561        C993   1.476       .  S
C562        C581   1.453       .  S
C562        H566   1.078       .  S
N563        C574   1.335       .  A
N563       Co573   2.070       .  S
C567        N583   1.361       .  A
C567        C579   1.448       .  S
C567       C1005   1.479       .  S
Co569      Cl580   2.402       .  S
N570        C581   1.356       .  A
C571        C972   1.483       .  S
Co573      Cl580   2.482       .  S
C581       C1152   1.478       .  S
C584        N602   1.337       .  A
C584        C621   1.478       .  S
C584       C1176   1.473       .  S
N585        N602   1.314       .  A
N585        N607   1.317       .  A
N585       Co622   2.042       .  S
C586        N611   1.336       .  A
C586        C624   1.457       .  S
C586        H631   1.082       .  S
H587        C628   1.081       .  S
C588        N612   1.342       .  A
C588        C592   1.468       .  S
C588        H617   1.079       .  S
Co589       N607   2.118       .  S
Co589       N597   2.102       .  S
Co589       N629   2.097       .  S
Co589       N605   2.100       .  S
Co589      Cl633   2.480       .  S
N590        C628   1.337       .  A
N590        N597   1.326       .  A
N590       Co591   2.093       .  S
Co591       N594   2.098       .  S
Co591       N611   2.068       .  S
Co591       N598   2.122       .  S
Co591      Cl633   2.429       .  S
C592        N630   1.354       .  A
C592       C1053   1.496       .  S
N593        N600   1.318       .  A
N593        N623   1.324       .  A
N593       Co626   2.065       .  S
N594        N612   1.315       .  A
N594        N630   1.327       .  A
N595        C624   1.355       .  A
N595        N605   1.327       .  A
H596        C621   1.081       .  S
N597        N618   1.326       .  A
N598        N616   1.318       .  A
N598        N603   1.333       .  A
C599        N603   1.363       .  A
C599        C627   1.448       .  S
C599        C945   1.490       .  S
N600        C615   1.339       .  A
N600       Co622   2.088       .  S
C601        N629   1.347       .  A
C601        C604   1.472       .  S
C601        H635   1.081       .  S
C604        N625   1.348       .  A
C604       C1092   1.493       .  S
N605        N611   1.320       .  A
N606        C632   1.334   1_565  A
N606        N608   1.314       .  A
N606       Co622   2.043       .  S
N607        C621   1.353       .  A
N608        N636   1.323   1_565  A
N608       Co626   2.080       .  S
H609        C632   1.081       .  S
H610        C627   1.079       .  S
N612       Co626   2.075       .  S
N613        N625   1.323       .  A
N613        N629   1.321       .  A
N613       Co622   2.095       .  S
C614        N618   1.353       .  A
C614        C628   1.456       .  S
C614        C996   1.476       .  S
C615        C634   1.458       .  S
C615        H619   1.081       .  S
N616        C627   1.328       .  A
N616       Co626   2.052       .  S
C620        N636   1.349       .  A
C620        C632   1.446       .  S
C620       C1008   1.452       .  S
Co622      Cl633   2.415       .  S
N623        C634   1.348       .  A
C624        C957   1.485       .  S
Co626      Cl633   2.467       .  S
C634       C1224   1.473       .  S
C637        N655   1.353       .  A
C637        C674   1.462       .  S
C637       C1500   1.485       .  S
N638        N655   1.327       .  A
N638        N660   1.320       .  A
N638       Co675   2.092   1_565  S
C639        N664   1.336       .  A
C639        C677   1.454       .  S
C639        H684   1.080       .  S
H640        C681   1.081       .  S
C641        N665   1.341       .  A
C641        C645   1.469       .  S
C641        H670   1.080       .  S
Co642       N660   2.082       .  S
Co642       N650   2.093       .  S
Co642       N682   2.091   1_565  S
Co642       N658   2.090       .  S
Co642      Cl686   2.468       .  S
N643        C681   1.330       .  A
N643        N650   1.316       .  A
N643       Co644   2.039       .  S
Co644       N647   2.097       .  S
Co644       N664   2.073       .  S
Co644       N651   2.043   1_565  S
Co644      Cl686   2.413       .  S
C645        N683   1.352       .  A
C645        C897   1.489       .  S
N646        N653   1.319       .  A
N646        N676   1.324       .  A
N646       Co679   2.077       .  S
N647        N665   1.320       .  A
N647        N683   1.324       .  A
N648        C677   1.354       .  A
N648        N658   1.326       .  A
H649        C674   1.081       .  S
N650        N671   1.327       .  A
N651        N669   1.315       .  A
N651        N656   1.312       .  A
C652        N656   1.336       .  A
C652        C680   1.473       .  S
C652        C948   1.464       .  S
N653        C668   1.335       .  A
N653       Co675   2.069       .  S
C654        N682   1.345       .  A
C654        C657   1.469       .  S
C654        H688   1.081       .  S
C657        N678   1.351       .  A
C657        C936   1.493       .  S
N658        N664   1.318       .  A
N659        C685   1.332       .  A
N659        N661   1.324       .  A
N659       Co675   2.072       .  S
N660        C674   1.336       .  A
N661        N689   1.326       .  A
N661       Co679   2.098       .  S
H662        C685   1.081       .  S
H663        C680   1.081       .  S
N665       Co679   2.083   1_565  S
N666        N678   1.326       .  A
N666        N682   1.317       .  A
N666       Co675   2.086       .  S
C667        N671   1.354       .  A
C667        C681   1.447       .  S
C667        C912   1.469       .  S
C668        C687   1.457       .  S
C668        H672   1.082       .  S
N669        C680   1.351       .  A
N669       Co679   2.095       .  S
C673        N689   1.353       .  A
C673        C685   1.447       .  S
C673        C921   1.465       .  S
Co675      Cl686   2.427   1_545  S
N676        C687   1.350       .  A
C677       C1068   1.480   1_565  S
Co679      Cl686   2.478   1_545  S
C687       C1425   1.473       .  S
C690        N708   1.354       .  A
C690        C727   1.462       .  S
C690       C1596   1.486       .  S
N691        N708   1.327       .  A
N691        N713   1.321       .  A
N691       Co728   2.094       .  S
C692        N717   1.337       .  A
C692        C730   1.452       .  S
C692        H737   1.079       .  S
H693        C734   1.081       .  S
C694        N718   1.345       .  A
C694        C698   1.472       .  S
C694        H723   1.080       .  S
Co695       N713   2.087       .  S
Co695       N703   2.097       .  S
Co695       N735   2.088       .  S
Co695       N711   2.097       .  S
Co695      Cl739   2.471       .  S
N696        C734   1.332       .  A
N696        N703   1.317       .  A
N696       Co697   2.040       .  S
Co697       N700   2.105       .  S
Co697       N717   2.079       .  S
Co697       N704   2.040       .  S
Co697      Cl739   2.414       .  S
C698        N736   1.352       .  A
C698        C876   1.496       .  S
N699        N706   1.320       .  A
N699        N729   1.326       .  A
N699       Co732   2.098       .  S
N700        N718   1.322       .  A
N700        N736   1.325       .  A
N701        C730   1.357       .  A
N701        N711   1.329       .  A
H702        C727   1.081       .  S
N703        N724   1.326       .  A
N704        N722   1.313       .  A
N704        N709   1.311       .  A
C705        N709   1.336       .  A
C705        C733   1.480       .  S
C705        C969   1.465       .  S
N706        C721   1.336       .  A
N706       Co728   2.063       .  S
C707        N735   1.346       .  A
C707        C710   1.470       .  S
C707        H741   1.081       .  S
C710        N731   1.346       .  A
C710        C888   1.484       .  S
N711        N717   1.318       .  A
N712        C738   1.332       .  A
N712        N714   1.323       .  A
N712       Co728   2.069       .  S
N713        C727   1.338       .  A
N714        N742   1.325       .  A
N714       Co732   2.097       .  S
H715        C738   1.081       .  S
H716        C733   1.081       .  S
N718       Co732   2.098       .  S
N719        N731   1.322       .  A
N719        N735   1.316       .  A
N719       Co728   2.070       .  S
C720        N724   1.353       .  A
C720        C734   1.446       .  S
C720        C924   1.465       .  S
C721        C740   1.458       .  S
C721        H725   1.080       .  S
N722        C733   1.351       .  A
N722       Co732   2.105       .  S
C726        N742   1.354       .  A
C726        C738   1.449       .  S
C726        C909   1.468       .  S
Co728      Cl739   2.421       .  S
N729        C740   1.355       .  A
C730       C1017   1.484       .  S
Co732      Cl739   2.483       .  S
C740       C1356   1.488       .  S
C743        N761   1.362       .  A
C743        C780   1.458       .  S
C743       C1437   1.497       .  S
N744        N761   1.332       .  A
N744        N766   1.321       .  A
N744       Co781   2.122       .  S
C745        N770   1.336       .  A
C745        C783   1.460       .  S
C745        H790   1.079       .  S
H746        C787   1.081       .  S
C747        N771   1.346       .  A
C747        C751   1.471       .  S
C747        H776   1.081       .  S
Co748       N766   2.081       .  S
Co748       N756   2.090       .  S
Co748       N788   2.085       .  S
Co748       N764   2.091       .  S
Co748      Cl792   2.471       .  S
N749        C787   1.331   1_455  A
N749        N756   1.315       .  A
N749       Co750   2.036   1_455  S
Co750       N753   2.105       .  S
Co750       N770   2.085   1_655  S
Co750       N757   2.036       .  S
Co750      Cl792   2.417   1_655  S
C751        N789   1.351       .  A
C751        C933   1.494       .  S
N752        N759   1.322       .  A
N752        N782   1.326       .  A
N752       Co785   2.099       .  S
N753        N771   1.323       .  A
N753        N789   1.325       .  A
N754        C783   1.356       .  A
N754        N764   1.329       .  A
H755        C780   1.079       .  S
N756        N777   1.325       .  A
N757        N775   1.315       .  A
N757        N762   1.313       .  A
C758        N762   1.336       .  A
C758        C786   1.477       .  S
C758       C1077   1.469       .  S
N759        C774   1.340       .  A
N759       Co781   2.072   1_655  S
C760        N788   1.346       .  A
C760        C763   1.469       .  S
C760        H794   1.080       .  S
C763        N784   1.351       .  A
C763        C873   1.495       .  S
N764        N770   1.318       .  A
N765        C791   1.335       .  A
N765        N767   1.326   1_455  A
N765       Co781   2.084       .  S
N766        C780   1.335       .  A
N767        N795   1.324       .  A
N767       Co785   2.095       .  S
H768        C791   1.081       .  S
H769        C786   1.081       .  S
N771       Co785   2.100       .  S
N772        N784   1.326       .  A
N772        N788   1.315       .  A
N772       Co781   2.089       .  S
C773        N777   1.352       .  A
C773        C787   1.446   1_455  S
C773        C861   1.463       .  S
C774        C793   1.459       .  S
C774        H778   1.081   1_655  S
N775        C786   1.353       .  A
N775       Co785   2.111       .  S
C779        N795   1.351   1_455  A
C779        C791   1.451       .  S
C779        C849   1.465       .  S
Co781      Cl792   2.431       .  S
N782        C793   1.354       .  A
C783        C984   1.492       .  S
Co785      Cl792   2.480   1_655  S
C793       C1605   1.492       .  S
C796        N814   1.348       .  A
C796        C833   1.453       .  S
C796       C1365   1.460       .  S
N797        N814   1.324       .  A
N797        N819   1.323       .  A
N797       Co834   2.084       .  S
C798        N823   1.340       .  A
C798        C836   1.457       .  S
C798        H843   1.080       .  S
H799        C840   1.081       .  S
C800        N824   1.346       .  A
C800        C804   1.472       .  S
C800        H829   1.081       .  S
Co801       N819   2.083       .  S
Co801       N809   2.085       .  S
Co801       N841   2.083       .  S
Co801       N817   2.087       .  S
Co801      Cl845   2.473       .  S
N802        C840   1.333   1_455  A
N802        N809   1.315       .  A
N802       Co803   2.046   1_455  S
Co803       N806   2.089       .  S
Co803       N823   2.085   1_655  S
Co803       N810   2.039       .  S
Co803      Cl845   2.411   1_655  S
C804        N842   1.346       .  A
C804        C885   1.485       .  S
N805        N812   1.320       .  A
N805        N835   1.329       .  A
N805       Co838   2.107       .  S
N806        N824   1.324       .  A
N806        N842   1.321       .  A
N807        C836   1.354       .  A
N807        N817   1.326       .  A
H808        C833   1.081       .  S
N809        N830   1.326       .  A
N810        N828   1.316       .  A
N810        N815   1.312       .  A
C811        N815   1.336       .  A
C811        C839   1.473       .  S
C811       C1032   1.464       .  S
N812        C827   1.336       .  A
N812       Co834   2.063   1_655  S
C813        N841   1.345       .  A
C813        C816   1.470       .  S
C813        H847   1.080       .  S
C816        N837   1.348       .  A
C816        C900   1.489       .  S
N817        N823   1.319       .  A
N818        C844   1.331       .  A
N818        N820   1.324   1_455  A
N818       Co834   2.066       .  S
N819        C833   1.338       .  A
N820        N848   1.325       .  A
N820       Co838   2.096       .  S
H821        C844   1.081       .  S
H822        C839   1.081       .  S
N824       Co838   2.104       .  S
N825        N837   1.322       .  A
N825        N841   1.314       .  A
N825       Co834   2.072       .  S
C826        N830   1.352       .  A
C826        C840   1.448   1_455  S
C826        C852   1.465       .  S
C827        C846   1.456       .  S
C827        H831   1.080   1_655  S
N828        C839   1.352       .  A
N828       Co838   2.102       .  S
C832        N848   1.353   1_455  A
C832        C844   1.447       .  S
C832        C864   1.462       .  S
Co834      Cl845   2.419       .  S
N835        C846   1.358       .  A
C836        C960   1.484       .  S
Co838      Cl845   2.485   1_655  S
C846       C1509   1.493       .  S
C849        C850   1.403       .  A
C849        C854   1.405   1_455  A
C850        H855   1.084       .  S
C850        C851   1.397       .  A
C851        C852   1.405       .  A
C851        O856   1.372       .  S
C852        C853   1.403   1_455  A
C853        H857   1.084       .  S
C853        C854   1.395       .  A
C854        O858   1.372       .  S
O856        H860   0.992       .  S
O858        H859   0.992       .  S
C861        C862   1.398       .  A
C861        C866   1.410   1_455  A
C862        H867   1.084       .  S
C862        C863   1.394   1_545  A
C863        C864   1.410       .  A
C863        O868   1.372       .  S
C864        C865   1.398   1_455  A
C865        H869   1.084       .  S
C865        C866   1.394   1_565  A
C866        O870   1.371       .  S
O868        H872   0.992       .  S
O870        H871   0.992       .  S
C873        C874   1.407       .  A
C873        C878   1.411       .  A
C874        H879   1.084       .  S
C874        C875   1.407       .  A
C875        C876   1.412       .  A
C875        O880   1.370       .  S
C876        C877   1.408       .  A
C877        H881   1.084       .  S
C877        C878   1.406       .  A
C878        O882   1.370       .  S
O880        H884   0.992       .  S
O882        H883   0.992       .  S
C885        C886   1.407       .  A
C885        C890   1.409       .  A
C886        H891   1.084       .  S
C886        C887   1.401       .  A
C887        C888   1.408       .  A
C887        O892   1.371       .  S
C888        C889   1.407       .  A
C889        H893   1.084       .  S
C889        C890   1.402       .  A
C890        O894   1.371       .  S
O892        H896   0.992       .  S
O894        H895   0.992       .  S
C897        C898   1.407       .  A
C897        C902   1.410       .  A
C898        H903   1.083       .  S
C898        C899   1.404       .  A
C899        C900   1.409       .  A
C899        O904   1.370       .  S
C900        C901   1.407       .  A
C901        H905   1.083       .  S
C901        C902   1.401       .  A
C902        O906   1.370       .  S
O904        H908   0.992       .  S
O906        H907   0.992       .  S
C909        C910   1.406       .  A
C909        C914   1.404       .  A
C910        H915   1.083       .  S
C910        C911   1.397       .  A
C911        C912   1.404       .  A
C911        O916   1.371       .  S
C912        C913   1.406       .  A
C913        H917   1.083       .  S
C913        C914   1.394       .  A
C914        O918   1.372       .  S
O916        H920   0.992       .  S
O918        H919   0.992       .  S
C921        C922   1.404       .  A
C921        C926   1.404       .  A
C922        H927   1.084       .  S
C922        C923   1.396       .  A
C923        C924   1.403       .  A
C923        O928   1.372       .  S
C924        C925   1.405       .  A
C925        H929   1.084       .  S
C925        C926   1.396       .  A
C926        O930   1.372       .  S
O928        H932   0.992       .  S
O930        H931   0.992       .  S
C933        C934   1.406       .  A
C933        C938   1.413       .  A
C934        H939   1.083       .  S
C934        C935   1.407       .  A
C935        C936   1.414       .  A
C935        O940   1.372       .  S
C936        C937   1.404       .  A
C937        H941   1.082       .  S
C937        C938   1.404       .  A
C938        O942   1.371       .  S
O940        H944   0.992       .  S
O942        H943   0.992       .  S
C945        C946   1.411   1_565  A
C945        C950   1.408       .  A
C946        H951   1.080       .  S
C946        C947   1.396       .  A
C947        C948   1.400       .  A
C947        O952   1.373       .  S
C948        C949   1.409   1_545  A
C949        H953   1.084       .  S
C949        C950   1.406       .  A
C950        O954   1.371       .  S
O952        H956   0.992       .  S
O954        H955   0.992       .  S
C957        C958   1.405       .  A
C957        C962   1.411       .  A
C958        H963   1.083       .  S
C958        C959   1.399       .  A
C959        C960   1.409       .  A
C959        O964   1.370       .  S
C960        C961   1.406       .  A
C961        H965   1.083       .  S
C961        C962   1.402       .  A
C962        O966   1.371       .  S
O964        H968   0.992       .  S
O966        H967   0.992       .  S
C969        C970   1.403       .  A
C969        C974   1.408       .  A
C970        H975   1.084       .  S
C970        C971   1.399       .  A
C971        C972   1.413       .  A
C971        O976   1.372       .  S
C972        C973   1.404       .  A
C973        H977   1.083       .  S
C973        C974   1.402       .  A
C974        O978   1.371       .  S
O976        H980   0.992       .  S
O978        H979   0.992       .  S
C981        C982   1.404       .  A
C981        C986   1.404       .  A
C982        H987   1.083       .  S
C982        C983   1.409       .  A
C983        C984   1.414       .  A
C983        O988   1.371       .  S
C984        C985   1.407       .  A
C985        H989   1.080       .  S
C985        C986   1.396       .  A
C986        O990   1.373       .  S
O988        H992   0.992       .  S
O990        H991   0.992       .  S
C993        C994   1.405       .  A
C993        C998   1.408       .  A
C994        H999   1.083       .  S
C994        C995   1.399       .  A
C995        C996   1.408       .  A
C995       O1000   1.372       .  S
C996        C997   1.405       .  A
C997       H1001   1.083       .  S
C997        C998   1.399       .  A
C998       O1002   1.372       .  S
O1000      H1004   0.992       .  S
O1002      H1003   0.992       .  S
C1005      C1006   1.405       .  A
C1005      C1010   1.421       .  A
C1006      H1011   1.083       .  S
C1006      C1007   1.399       .  A
C1007      C1008   1.404       .  A
C1007      O1012   1.371       .  S
C1008      C1009   1.389       .  A
C1009      H1013   1.085       .  S
C1009      C1010   1.387       .  A
C1010      O1014   1.368       .  S
O1012      H1016   0.992       .  S
O1014      H1015   0.992       .  S
C1017      C1018   1.398       .  A
C1017      C1022   1.417       .  A
C1018      H1023   1.084       .  S
C1018      C1019   1.403       .  A
C1019      C1020   1.417       .  A
C1019      O1024   1.372       .  S
C1020      C1021   1.400       .  A
C1021      H1025   1.084       .  S
C1021      C1022   1.402       .  A
C1022      O1026   1.371       .  S
O1024      H1028   0.992       .  S
O1026      H1027   0.992       .  S
C1029      C1030   1.404       .  A
C1029      C1034   1.415       .  A
C1030      H1035   1.083       .  S
C1030      C1031   1.405       .  A
C1031      C1032   1.410       .  A
C1031      O1036   1.371       .  S
C1032      C1033   1.397       .  A
C1033      H1037   1.085       .  S
C1033      C1034   1.396       .  A
C1034      O1038   1.371       .  S
O1036      H1040   0.991       .  S
O1038      H1039   0.992       .  S
C1041      C1042   1.409       .  A
C1041      C1046   1.412   1_655  A
C1042      H1047   1.083       .  S
C1042      C1043   1.401   1_655  A
C1043      C1044   1.404       .  A
C1043      O1048   1.372       .  S
C1044      C1045   1.403       .  A
C1045      H1049   1.084       .  S
C1045      C1046   1.408       .  A
C1046      O1050   1.370   1_455  S
O1048      H1052   0.992       .  S
O1050      H1051   0.992   1_655  S
C1053      C1054   1.407       .  A
C1053      C1058   1.413       .  A
C1054      H1059   1.083       .  S
C1054      C1055   1.405       .  A
C1055      C1056   1.413       .  A
C1055      O1060   1.370       .  S
C1056      C1057   1.405       .  A
C1057      H1061   1.083       .  S
C1057      C1058   1.403       .  A
C1058      O1062   1.369       .  S
O1060      H1064   0.992       .  S
O1062      H1063   0.992       .  S
C1065      C1066   1.410       .  A
C1065      C1070   1.406       .  A
C1066      H1071   1.081       .  S
C1066      C1067   1.399       .  A
C1067      C1068   1.404       .  A
C1067      O1072   1.372   1_545  S
C1068      C1069   1.409       .  A
C1069      H1073   1.082       .  S
C1069      C1070   1.401       .  A
C1070      O1074   1.372       .  S
O1072      H1076   0.992   1_565  S
O1074      H1075   0.992       .  S
C1077      C1078   1.407       .  A
C1077      C1082   1.404       .  A
C1078      H1083   1.084       .  S
C1078      C1079   1.406       .  A
C1079      C1080   1.410       .  A
C1079      O1084   1.371       .  S
C1080      C1081   1.407       .  A
C1081      H1085   1.082       .  S
C1081      C1082   1.399       .  A
C1082      O1086   1.372       .  S
O1084      H1088   0.992       .  S
O1086      H1087   0.991       .  S
C1089      C1090   1.403   1_655  A
C1089      C1094   1.415   1_545  A
C1090      H1095   1.083       .  S
C1090      C1091   1.404       .  A
C1091      C1092   1.415   1_545  A
C1091      O1096   1.372       .  S
C1092      C1093   1.404       .  A
C1093      H1097   1.083       .  S
C1093      C1094   1.405   1_455  A
C1094      O1098   1.370       .  S
O1096      H1100   0.992       .  S
O1098      H1099   0.992       .  S
C1101      C1102   1.397       .  A
C1101      C1106   1.409       .  A
C1102      H1107   1.084       .  S
C1102      C1103   1.397       .  A
C1103      C1104   1.408       .  A
C1103      O1108   1.372       .  S
C1104      C1105   1.398       .  A
C1105      H1109   1.084       .  S
C1105      C1106   1.397       .  A
C1106      O1110   1.373       .  S
O1108      H1112   0.991       .  S
O1110      H1111   0.992       .  S
C1113      C1114   1.400       .  A
C1113      C1118   1.410       .  A
C1114      H1119   1.084       .  S
C1114      C1115   1.395       .  A
C1115      C1116   1.409       .  A
C1115      O1120   1.372       .  S
C1116      C1117   1.398       .  A
C1117      H1121   1.084       .  S
C1117      C1118   1.392       .  A
C1118      O1122   1.372       .  S
O1120      H1124   0.992       .  S
O1122      H1123   0.992       .  S
C1125      C1126   1.405       .  A
C1125      C1130   1.410       .  A
C1126      H1131   1.084       .  S
C1126      C1127   1.406       .  A
C1127      C1128   1.410       .  A
C1127      O1132   1.371       .  S
C1128      C1129   1.404       .  A
C1129      H1133   1.083       .  S
C1129      C1130   1.402       .  A
C1130      O1134   1.372       .  S
O1132      H1136   0.992       .  S
O1134      H1135   0.992       .  S
C1137      C1138   1.394       .  A
C1137      C1142   1.409       .  A
C1138      H1143   1.084       .  S
C1138      C1139   1.392       .  A
C1139      C1140   1.416       .  A
C1139      O1144   1.371       .  S
C1140      C1141   1.405       .  A
C1141      H1145   1.083       .  S
C1141      C1142   1.403       .  A
C1142      O1146   1.371       .  S
O1144      H1148   0.992       .  S
O1146      H1147   0.992       .  S
C1149      C1150   1.400       .  A
C1149      C1154   1.409       .  A
C1150      H1155   1.083       .  S
C1150      C1151   1.398       .  A
C1151      C1152   1.412       .  A
C1151      O1156   1.373       .  S
C1152      C1153   1.403       .  A
C1153      H1157   1.084       .  S
C1153      C1154   1.399       .  A
C1154      O1158   1.372       .  S
O1156      H1160   0.992       .  S
O1158      H1159   0.992       .  S
C1161      C1162   1.404       .  A
C1161      C1166   1.402       .  A
C1162      H1167   1.084       .  S
C1162      C1163   1.401       .  A
C1163      C1164   1.403       .  A
C1163      O1168   1.371       .  S
C1164      C1165   1.403       .  A
C1165      H1169   1.084       .  S
C1165      C1166   1.397       .  A
C1166      O1170   1.371       .  S
O1168      H1172   0.992   1_545  S
O1170      H1171   0.992       .  S
C1173      C1174   1.405       .  A
C1173      C1178   1.417       .  A
C1174      H1179   1.083       .  S
C1174      C1175   1.406       .  A
C1175      C1176   1.412       .  A
C1175      O1180   1.372       .  S
C1176      C1177   1.399       .  A
C1177      H1181   1.084       .  S
C1177      C1178   1.402       .  A
C1178      O1182   1.372       .  S
O1180      H1184   0.992       .  S
O1182      H1183   0.992       .  S
C1185      C1186   1.391   1_556  A
C1185      C1190   1.406   1_655  A
C1186      H1191   1.085       .  S
C1186      C1187   1.390       .  A
C1187      C1188   1.417   1_654  A
C1187      O1192   1.372       .  S
C1188      C1189   1.403       .  A
C1189      H1193   1.083       .  S
C1189      C1190   1.402       .  A
C1190      O1194   1.371       .  S
O1192      H1196   0.992       .  S
O1194      H1195   0.992       .  S
C1197      C1198   1.410   1_554  A
C1197      C1202   1.415   1_455  A
C1198      H1203   1.083       .  S
C1198      C1199   1.404       .  A
C1199      C1200   1.405   1_556  A
C1199      O1204   1.371       .  S
C1200      C1201   1.401   1_455  A
C1201      H1205   1.084       .  S
C1201      C1202   1.406       .  A
C1202      O1206   1.370       .  S
O1204      H1208   0.992       .  S
O1206      H1207   0.992       .  S
C1209      C1210   1.404       .  A
C1209      C1214   1.415       .  A
C1210      H1215   1.083       .  S
C1210      C1211   1.405       .  A
C1211      C1212   1.412       .  A
C1211      O1216   1.371       .  S
C1212      C1213   1.403       .  A
C1213      H1217   1.084       .  S
C1213      C1214   1.405       .  A
C1214      O1218   1.372       .  S
O1216      H1220   0.992       .  S
O1218      H1219   0.992       .  S
C1221      C1222   1.403       .  A
C1221      C1226   1.416       .  A
C1222      H1227   1.083       .  S
C1222      C1223   1.402       .  A
C1223      C1224   1.410       .  A
C1223      O1228   1.370       .  S
C1224      C1225   1.397       .  A
C1225      H1229   1.084       .  S
C1225      C1226   1.394       .  A
C1226      O1230   1.372       .  S
O1228      H1232   0.991       .  S
O1230      H1231   0.992       .  S
C1233      C1234   1.407       .  A
C1233      C1238   1.408   1_556  A
C1234      H1239   1.081       .  S
C1234      C1235   1.400       .  A
C1235      C1236   1.408   1_556  A
C1235      O1240   1.372       .  S
C1236      C1237   1.408       .  A
C1237      H1241   1.081       .  S
C1237      C1238   1.401       .  A
C1238      O1242   1.372       .  S
O1240      H1244   0.992       .  S
O1242      H1243   0.992       .  S
C1245      C1246   1.407       .  A
C1245      C1250   1.418   1_556  A
C1246      H1251   1.083       .  S
C1246      C1247   1.410       .  A
C1247      C1248   1.408       .  A
C1247      O1252   1.371       .  S
C1248      C1249   1.398   1_556  A
C1249      H1253   1.084       .  S
C1249      C1250   1.404       .  A
C1250      O1254   1.371       .  S
O1252      H1256   0.992       .  S
O1254      H1255   0.992       .  S
C1257      C1258   1.400       .  A
C1257      C1262   1.414       .  A
C1258      H1263   1.084       .  S
C1258      C1259   1.404       .  A
C1259      C1260   1.417       .  A
C1259      O1264   1.371       .  S
C1260      C1261   1.405       .  A
C1261      H1265   1.083       .  S
C1261      C1262   1.408       .  A
C1262      O1266   1.373       .  S
O1264      H1268   0.992       .  S
O1266      H1267   0.992       .  S
C1269      C1270   1.403       .  A
C1269      C1274   1.410       .  A
C1270      H1275   1.084       .  S
C1270      C1271   1.403       .  A
C1271      C1272   1.414       .  A
C1271      O1276   1.372       .  S
C1272      C1273   1.404       .  A
C1273      H1277   1.082       .  S
C1273      C1274   1.403       .  A
C1274      O1278   1.371       .  S
O1276      H1280   0.992       .  S
O1278      H1279   0.992       .  S
C1281      C1282   1.410   1_556  A
C1281      C1286   1.410       .  A
C1282      H1287   1.082       .  S
C1282      C1283   1.404       .  A
C1283      C1284   1.409   1_554  A
C1283      O1288   1.371       .  S
C1284      C1285   1.410       .  A
C1285      H1289   1.082       .  S
C1285      C1286   1.406       .  A
C1286      O1290   1.371       .  S
O1288      H1292   0.992       .  S
O1290      H1291   0.992       .  S
C1293      C1294   1.406       .  A
C1293      C1298   1.410       .  A
C1294      H1299   1.084       .  S
C1294      C1295   1.401       .  A
C1295      C1296   1.407       .  A
C1295      O1300   1.371   1_554  S
C1296      C1297   1.406       .  A
C1297      H1301   1.084       .  S
C1297      C1298   1.405       .  A
C1298      O1302   1.371       .  S
O1300      H1304   0.992   1_556  S
O1302      H1303   0.992   1_554  S
C1305      C1306   1.406       .  A
C1305      C1310   1.405       .  A
C1306      H1311   1.084       .  S
C1306      C1307   1.398   1_545  A
C1307      C1308   1.404       .  A
C1307      O1312   1.372       .  S
C1308      C1309   1.405       .  A
C1309      H1313   1.084       .  S
C1309      C1310   1.396   1_565  A
C1310      O1314   1.371       .  S
O1312      H1316   0.992   1_556  S
O1314      H1315   0.992       .  S
C1317      C1318   1.405       .  A
C1317      C1322   1.407       .  A
C1318      H1323   1.083       .  S
C1318      C1319   1.399       .  A
C1319      C1320   1.408       .  A
C1319      O1324   1.372       .  S
C1320      C1321   1.404       .  A
C1321      H1325   1.083       .  S
C1321      C1322   1.397       .  A
C1322      O1326   1.371       .  S
O1324      H1328   0.992   1_554  S
O1326      H1327   0.992       .  S
C1329      C1330   1.403       .  A
C1329      C1334   1.412       .  A
C1330      H1335   1.082       .  S
C1330      C1331   1.394       .  A
C1331      C1332   1.409       .  A
C1331      O1336   1.372       .  S
C1332      C1333   1.403       .  A
C1333      H1337   1.083       .  S
C1333      C1334   1.403       .  A
C1334      O1338   1.372       .  S
O1336      H1340   0.992       .  S
O1338      H1339   0.992       .  S
C1341      C1342   1.411       .  A
C1341      C1346   1.410       .  A
C1342      H1347   1.083       .  S
C1342      C1343   1.398       .  A
C1343      C1344   1.401       .  A
C1343      O1348   1.372       .  S
C1344      C1345   1.409       .  A
C1345      H1349   1.084       .  S
C1345      C1346   1.407       .  A
C1346      O1350   1.370       .  S
O1348      H1352   0.991       .  S
O1350      H1351   0.992       .  S
C1353      C1354   1.401       .  A
C1353      C1358   1.407       .  A
C1354      H1359   1.084       .  S
C1354      C1355   1.402       .  A
C1355      C1356   1.415       .  A
C1355      O1360   1.371       .  S
C1356      C1357   1.406       .  A
C1357      H1361   1.083       .  S
C1357      C1358   1.401       .  A
C1358      O1362   1.373       .  S
O1360      H1364   0.992       .  S
O1362      H1363   0.992       .  S
C1365      C1366   1.396       .  A
C1365      C1370   1.406       .  A
C1366      H1371   1.084       .  S
C1366      C1367   1.394       .  A
C1367      C1368   1.411       .  A
C1367      O1372   1.372       .  S
C1368      C1369   1.401       .  A
C1369      H1373   1.084       .  S
C1369      C1370   1.401       .  A
C1370      O1374   1.371       .  S
O1372      H1376   0.992       .  S
O1374      H1375   0.992       .  S
C1377      C1378   1.395       .  A
C1377      C1382   1.413       .  A
C1378      H1383   1.084       .  S
C1378      C1379   1.399       .  A
C1379      C1380   1.418       .  A
C1379      O1384   1.371       .  S
C1380      C1381   1.403       .  A
C1381      H1385   1.083       .  S
C1381      C1382   1.405       .  A
C1382      O1386   1.373       .  S
O1384      H1388   0.992       .  S
O1386      H1387   0.992       .  S
C1389      C1390   1.412   1_565  A
C1389      C1394   1.402   1_565  A
C1390      H1395   1.083       .  S
C1390      C1391   1.402       .  A
C1391      C1392   1.405       .  A
C1391      O1396   1.370       .  S
C1392      C1393   1.412       .  A
C1393      H1397   1.083       .  S
C1393      C1394   1.393       .  A
C1394      O1398   1.371   1_545  S
O1396      H1400   0.992       .  S
O1398      H1399   0.992       .  S
C1401      C1402   1.399       .  A
C1401      C1406   1.413       .  A
C1402      H1407   1.084       .  S
C1402      C1403   1.404       .  A
C1403      C1404   1.411       .  A
C1403      O1408   1.365       .  S
C1404      C1405   1.406       .  A
C1405      H1409   1.083       .  S
C1405      C1406   1.412       .  A
C1406      O1410   1.371       .  S
O1408      H1412   0.992       .  S
O1410      H1411   0.992       .  S
C1413      C1414   1.404       .  A
C1413      C1418   1.404       .  A
C1414      H1419   1.084       .  S
C1414      C1415   1.394       .  A
C1415      C1416   1.404       .  A
C1415      O1420   1.371       .  S
C1416      C1417   1.404       .  A
C1417      H1421   1.083       .  S
C1417      C1418   1.396       .  A
C1418      O1422   1.372       .  S
O1420      H1424   0.992       .  S
O1422      H1423   0.992       .  S
C1425      C1426   1.399       .  A
C1425      C1430   1.410       .  A
C1426      H1431   1.084       .  S
C1426      C1427   1.395       .  A
C1427      C1428   1.413       .  A
C1427      O1432   1.371       .  S
C1428      C1429   1.403       .  A
C1429      H1433   1.084       .  S
C1429      C1430   1.399       .  A
C1430      O1434   1.371       .  S
O1432      H1436   0.992       .  S
O1434      H1435   0.992       .  S
C1437      C1438   1.407       .  A
C1437      C1442   1.417       .  A
C1438      H1443   1.083       .  S
C1438      C1439   1.409       .  A
C1439      C1440   1.412       .  A
C1439      O1444   1.371       .  S
C1440      C1441   1.399       .  A
C1441      H1445   1.084       .  S
C1441      C1442   1.401       .  A
C1442      O1446   1.370       .  S
O1444      H1448   0.991       .  S
O1446      H1447   0.992       .  S
C1449      C1450   1.410       .  A
C1449      C1454   1.402       .  A
C1450      H1455   1.084       .  S
C1450      C1451   1.408       .  A
C1451      C1452   1.411       .  A
C1451      O1456   1.372       .  S
C1452      C1453   1.411       .  A
C1453      H1457   1.080       .  S
C1453      C1454   1.401       .  A
C1454      O1458   1.371       .  S
O1456      H1460   0.992       .  S
O1458      H1459   0.991       .  S
C1461      C1462   1.410       .  A
C1461      C1466   1.411       .  A
C1462      H1467   1.082       .  S
C1462      C1463   1.403       .  A
C1463      C1464   1.407   1_565  A
C1463      O1468   1.371   1_565  S
C1464      C1465   1.407       .  A
C1465      H1469   1.084       .  S
C1465      C1466   1.403   1_545  A
C1466      O1470   1.371       .  S
O1468      H1472   0.991       .  S
O1470      H1471   0.992       .  S
C1473      C1474   1.404       .  A
C1473      C1478   1.408       .  A
C1474      H1479   1.084       .  S
C1474      C1475   1.400       .  A
C1475      C1476   1.408   1_655  A
C1475      O1480   1.371       .  S
C1476      C1477   1.402       .  A
C1477      H1481   1.082       .  S
C1477      C1478   1.396   1_455  A
C1478      O1482   1.372   1_655  S
O1480      H1484   0.992       .  S
O1482      H1483   0.992       .  S
C1485      C1486   1.402       .  A
C1485      C1490   1.408   1_545  A
C1486      H1491   1.083       .  S
C1486      C1487   1.405       .  A
C1487      C1488   1.412   1_545  A
C1487      O1492   1.370       .  S
C1488      C1489   1.396       .  A
C1489      H1493   1.083       .  S
C1489      C1490   1.396       .  A
C1490      O1494   1.366       .  S
O1492      H1496   0.992       .  S
O1494      H1495   0.992       .  S
C1497      C1498   1.404       .  A
C1497      C1502   1.407       .  A
C1498      H1503   1.084       .  S
C1498      C1499   1.406       .  A
C1499      C1500   1.413       .  A
C1499      O1504   1.371       .  S
C1500      C1501   1.404       .  A
C1501      H1505   1.081       .  S
C1501      C1502   1.394       .  A
C1502      O1506   1.372       .  S
O1504      H1508   0.992       .  S
O1506      H1507   0.992       .  S
C1509      C1510   1.405       .  A
C1509      C1514   1.416       .  A
C1510      H1515   1.083       .  S
C1510      C1511   1.402       .  A
C1511      C1512   1.409       .  A
C1511      O1516   1.372       .  S
C1512      C1513   1.402       .  A
C1513      H1517   1.084       .  S
C1513      C1514   1.405       .  A
C1514      O1518   1.371       .  S
O1516      H1520   0.991       .  S
O1518      H1519   0.992   1_655  S
C1521      C1522   1.407       .  A
C1521      C1526   1.416       .  A
C1522      H1527   1.083       .  S
C1522      C1523   1.405       .  A
C1523      C1524   1.409       .  A
C1523      O1528   1.372       .  S
C1524      C1525   1.398       .  A
C1525      H1529   1.084       .  S
C1525      C1526   1.401       .  A
C1526      O1530   1.370       .  S
O1528      H1532   0.992       .  S
O1530      H1531   0.992       .  S
C1533      C1534   1.403       .  A
C1533      C1538   1.407       .  A
C1534      H1539   1.083       .  S
C1534      C1535   1.394       .  A
C1535      C1536   1.406       .  A
C1535      O1540   1.373       .  S
C1536      C1537   1.405       .  A
C1537      H1541   1.083       .  S
C1537      C1538   1.400       .  A
C1538      O1542   1.372       .  S
O1540      H1544   0.992       .  S
O1542      H1543   0.992       .  S
C1545      C1546   1.406       .  A
C1545      C1550   1.412   1_455  A
C1546      H1551   1.083       .  S
C1546      C1547   1.404   1_455  A
C1547      C1548   1.412       .  A
C1547      O1552   1.371   1_655  S
C1548      C1549   1.407       .  A
C1549      H1553   1.083       .  S
C1549      C1550   1.409       .  A
C1550      O1554   1.371       .  S
O1552      H1556   0.992       .  S
O1554      H1555   0.992       .  S
C1557      C1558   1.404       .  A
C1557      C1562   1.403       .  A
C1558      H1563   1.084       .  S
C1558      C1559   1.397       .  A
C1559      C1560   1.404       .  A
C1559      O1564   1.372       .  S
C1560      C1561   1.403       .  A
C1561      H1565   1.084       .  S
C1561      C1562   1.395       .  A
C1562      O1566   1.372       .  S
O1564      H1568   0.991       .  S
O1566      H1567   0.991       .  S
C1569      C1570   1.397       .  A
C1569      C1574   1.406       .  A
C1570      H1575   1.084       .  S
C1570      C1571   1.394       .  A
C1571      C1572   1.403       .  A
C1571      O1576   1.371       .  S
C1572      C1573   1.399       .  A
C1573      H1577   1.084       .  S
C1573      C1574   1.396       .  A
C1574      O1578   1.372       .  S
O1576      H1580   0.988       .  S
O1578      H1579   0.992       .  S
C1581      C1582   1.406       .  A
C1581      C1586   1.416       .  A
C1582      H1587   1.083       .  S
C1582      C1583   1.408       .  A
C1583      C1584   1.412       .  A
C1583      O1588   1.372       .  S
C1584      C1585   1.400       .  A
C1585      H1589   1.083       .  S
C1585      C1586   1.403       .  A
C1586      O1590   1.371       .  S
O1588      H1592   0.992       .  S
O1590      H1591   0.992       .  S
C1593      C1594   1.403       .  A
C1593      C1598   1.402       .  A
C1594      H1599   1.084       .  S
C1594      C1595   1.404       .  A
C1595      C1596   1.413       .  A
C1595      O1600   1.371       .  S
C1596      C1597   1.407       .  A
C1597      H1601   1.082       .  S
C1597      C1598   1.397       .  A
C1598      O1602   1.372       .  S
O1600      H1604   0.992       .  S
O1602      H1603   0.992       .  S
C1605      C1606   1.407       .  A
C1605      C1610   1.414       .  A
C1606      H1611   1.083       .  S
C1606      C1607   1.402       .  A
C1607      C1608   1.407       .  A
C1607      O1612   1.372       .  S
C1608      C1609   1.404       .  A
C1609      H1613   1.084       .  S
C1609      C1610   1.404       .  A
C1610      O1614   1.371       .  S
O1612      H1616   0.992       .  S
O1614      H1615   0.992       .  S
