geometry optimzed in LAMMPS
_audit_creation_date              2020-11-30 
_audit_creation_method            'lammps2cif' 
_symmetry_space_group_name_H-M    'P1' 
_symmetry_Int_Tables_number       1 
_symmetry_cell_setting            triclinic 
loop_ 
_symmetry_equiv_pos_as_xyz 
  x,y,z 
_cell_length_a                    53.75058306301901 
_cell_length_b                    25.02709279335506 
_cell_length_c                    33.92157613571793 
_cell_angle_alpha                 90.27060273887014 
_cell_angle_beta                  89.60928287205053 
_cell_angle_gamma                 89.969515618385 
loop_ 
_atom_site_label 
_atom_site_type_symbol 
_atom_site_fract_x 
_atom_site_fract_y 
_atom_site_fract_z 
_atom_site_charge 
O1          O  0.46914394  0.03569298  0.38991275    -0.89340
C2          C  0.03718945  0.81985440  0.00648917     1.10700
O3          O  0.00079002  0.02843894  0.46389047    -1.37150
O4          O  0.47488695  0.83347186  0.47550028    -0.90830
O5          O  0.47188030  0.11539632  0.41934950    -0.91490
O6          O  0.44895517  0.06109652  0.50549814    -0.80320
O7          O  0.47741786  0.93503586  0.43094258    -1.02400
C8          C  0.45680077  0.94970117  0.08216300     1.20740
O9          O  0.50195877  0.03155713  0.04509267    -1.37300
Mn10       Mn  0.02857738  0.99710408  0.00402563     1.82060
O11         O  0.44888159  0.96849620  0.05031332    -0.79390
O12         O  0.47151471  0.84080327  0.04114358    -0.88790
C13         C  0.04747373  0.94286037  0.07588732     1.11830
C14         C  0.46471830  0.82131315  0.00821469     1.06550
O15         O  0.05382718  0.06048960  0.00292658    -0.80330
O16         O  0.00130634  0.93365638  0.00580018    -1.34020
O17         O  0.02503273  0.11861116  0.00169562    -0.99540
C18         C  0.46878176  0.09396967  0.11912632     1.05260
Mn19       Mn  0.50077930  0.89018274  0.05891580     1.48570
O20         O  0.47520421  0.12214851  0.08998611    -0.88740
Mn21       Mn  0.00080917  0.11335951  0.45958542     1.49560
O22         O  0.02533382  0.03888770  0.38167547    -0.92620
C23         C  0.45506023  0.93894026  0.43567500     1.18460
C24         C  0.03522258  0.08408845  0.38847259     1.10510
Mn25       Mn  0.47406227  0.99726397  0.50615851     1.80970
O26         O  0.02511491  0.94006176  0.08010412    -0.97770
Mn27       Mn  0.49912322  0.98905856  0.40861766     1.49260
C28         C  0.46083598  0.08233915  0.39711013     1.07030
Mn29       Mn  0.00398557  0.99628780  0.10116598     1.49930
C30         C  0.04241138  0.09008181  0.10968086     1.09940
O31         O  0.47774611  0.11944091  0.50432127    -1.03570
O32         O  0.02724399  0.83429189  0.03901935    -0.93230
C33         C  0.45552323  0.10909639  0.50535799     1.21220
O34         O  0.47917393  0.94368199  0.08484518    -1.03960
O35         O  0.03044816  0.83774191  0.47321702    -0.91360
O36         O  0.03424428  0.04373296  0.11799439    -0.90960
O37         O  0.02835200  0.11481388  0.41622685    -0.90990
Mn38       Mn  0.00165743  0.88657686  0.45389345     1.47860
O39         O  0.05507609  0.96488407  0.04485014    -0.79460
C40         C  0.04721672  0.10835728  0.00137628     1.14270
O41         O  0.44775837  0.96291409  0.46627694    -0.78190
O42         O  0.05343527  0.96611954  0.46117020    -0.77810
Mn43       Mn  0.50221862  0.11677630  0.04648400     1.51060
O44         O  0.47834409  0.04886192  0.12710082    -0.90160
O45         O  0.02390108  0.93678042  0.42603876    -0.97690
O46         O  0.03130120  0.12173144  0.08660861    -0.92700
C47         C  0.04617689  0.94397317  0.43005753     1.12060
C48         C  0.11448055  0.28633539  0.50611812     0.01960
C49         C  0.12262731  0.31096413  0.47112727    -0.14190
C50         C  0.13873396  0.35488509  0.47275453    -0.00540
C51         C  0.14583628  0.37487248  0.50945802    -0.12710
C52         C  0.13837065  0.35033431  0.04446592     0.01960
C53         C  0.12277979  0.30554449  0.04281137    -0.12130
H54         H  0.11726316  0.29463877  0.44278137     0.07550
H55         H  0.15949930  0.40667191  0.51076477     0.05080
H56         H  0.11727632  0.28564240  0.06980337     0.04930
C57         C  0.38760193  0.28668466  0.50020558     0.01960
C58         C  0.38245523  0.30916882  0.46312629    -0.14190
C59         C  0.36929771  0.35756430  0.46088272    -0.00540
C60         C  0.36256200  0.38353728  0.49589611    -0.12710
C61         C  0.36263940  0.35618780  0.03169571     0.01960
C62         C  0.37668535  0.30903786  0.03440467    -0.12130
H63         H  0.38838561  0.28897722  0.43633382     0.07550
H64         H  0.35299049  0.42154569  0.49452547     0.05080
H65         H  0.37801919  0.28811298  0.06218700     0.04930
C66         C  0.38465566  0.66624216  0.00603014     0.01960
C67         C  0.37392025  0.64994608  0.97006902    -0.14190
C68         C  0.35318002  0.61579308  0.96952295    -0.00540
C69         C  0.34342057  0.59716223  0.00565868    -0.12710
C70         C  0.35391727  0.61290399  0.04165178     0.01960
C71         C  0.37464090  0.64668233  0.04161977    -0.12130
H72         H  0.38062103  0.66652603  0.44255307     0.07550
H73         H  0.32700133  0.57204861  0.00594967     0.05080
H74         H  0.38243492  0.65885855  0.06961527     0.04930
C75         C  0.11554226  0.66045609  0.00743465     0.01960
C76         C  0.12629037  0.64453730  0.04338746    -0.14190
C77         C  0.14718477  0.61090706  0.04385167    -0.00540
C78         C  0.15706397  0.59235740  0.00775452    -0.12710
C79         C  0.14700787  0.60844584  0.47150318     0.01960
C80         C  0.12578121  0.64104449  0.47168484    -0.12130
H81         H  0.11957810  0.66126936  0.07096782     0.07550
H82         H  0.17344920  0.56710006  0.00780849     0.05080
H83         H  0.11806903  0.65346119  0.44379169     0.04930
O84         O  0.22401593  0.39044194  0.17100474    -0.89340
C85         C  0.28985298  0.42556875  0.36520538     1.10700
O86         O  0.25118074  0.48103608  0.21546151    -1.37150
O87         O  0.22335451  0.39418381  0.34215444    -0.90830
O88         O  0.22095077  0.46908919  0.14059398    -0.91490
O89         O  0.19785413  0.54608669  0.21510603    -0.80320
O90         O  0.22777033  0.39152735  0.25669830    -1.02400
C91         C  0.20582915  0.56704551  0.33011851     1.20740
O92         O  0.25114884  0.57794876  0.25556255    -1.37300
Mn93       Mn  0.27846151  0.51440928  0.25546622     1.82060
O94         O  0.19828795  0.54560623  0.29883612    -0.79390
O95         O  0.22426006  0.47074751  0.37609656    -0.88790
C96         C  0.29670653  0.56992327  0.32771885     1.11830
C97         C  0.21473103  0.42543051  0.36832468     1.06550
O98         O  0.30366178  0.54428282  0.21275556    -0.80330
O99         O  0.25135995  0.48187206  0.29665270    -1.34020
O100        O  0.27426460  0.57184512  0.17673092    -0.99540
C101        C  0.21459952  0.69048636  0.25573410     1.05260
Mn102      Mn  0.25199384  0.51987974  0.35219871     1.48570
O103        O  0.22347915  0.67458750  0.22288075    -0.88740
Mn104      Mn  0.25011243  0.51779338  0.15959573     1.49560
O105        O  0.28030879  0.39311051  0.17097762    -0.92620
C106        C  0.20554656  0.40218023  0.25666317     1.18460
C107        C  0.28701171  0.42288139  0.14271297     1.10510
Mn108      Mn  0.22394980  0.51420767  0.25630344     1.80970
O109        O  0.27432630  0.57388370  0.33134298    -0.97770
Mn110      Mn  0.25183567  0.39576157  0.21304359     1.49260
C111        C  0.21323691  0.42202593  0.14754227     1.07030
Mn112      Mn  0.25083920  0.62391063  0.30792733     1.49930
C113        C  0.28705636  0.69175896  0.25456697     1.09940
O114        O  0.22777579  0.57208547  0.17999721    -1.03570
O115        O  0.28137059  0.47206179  0.37270665    -0.93230
C116        C  0.20539639  0.56798164  0.18401545     1.21220
O117        O  0.22819132  0.57278602  0.33345675    -1.03960
O118        O  0.27943713  0.39349342  0.34156975    -0.91360
O119        O  0.27807367  0.67694685  0.28756588    -0.90960
O120        O  0.27684539  0.46740244  0.13499762    -0.90990
Mn121      Mn  0.25136605  0.39673275  0.30008248     1.47860
O122        O  0.30449086  0.54763713  0.29671643    -0.79460
C123        C  0.29655188  0.56568966  0.18139557     1.14270
O124        O  0.19904029  0.45023580  0.25606892    -0.78190
O125        O  0.30384719  0.45102573  0.25542496    -0.77810
Mn126      Mn  0.25127104  0.62254514  0.20277683     1.51060
O127        O  0.22269860  0.67494782  0.28889747    -0.90160
O128        O  0.27512854  0.39288322  0.25669263    -0.97690
O129        O  0.27941099  0.67417836  0.22155353    -0.92700
C130        C  0.29732827  0.40307929  0.25681159     1.12060
C131        C  0.13685871  0.22616305  0.25053797     0.01960
C132        C  0.13276958  0.20465063  0.21272567    -0.14190
C133        C  0.11947915  0.15687238  0.20845138    -0.00540
C134        C  0.11124202  0.13036880  0.24226062    -0.12710
C135        C  0.11076551  0.15618698  0.27890507     0.01960
C136        C  0.12500516  0.20299735  0.28355829    -0.12130
H137        H  0.13965186  0.22518586  0.18679151     0.07550
H138        H  0.10166175  0.09259515  0.23909589     0.05080
H139        H  0.12587902  0.22297193  0.31189671     0.04930
C140        C  0.36611760  0.84927569  0.25672015     0.01960
C141        C  0.37703783  0.86928226  0.22177089    -0.14190
C142        C  0.39843297  0.90153807  0.22309382    -0.00540
C143        C  0.40813321  0.91574039  0.26018299    -0.12710
C144        C  0.39756646  0.89633208  0.29533370     0.01960
C145        C  0.37650867  0.86358733  0.29336398    -0.12130
H146        H  0.36954929  0.85798280  0.19339967     0.07550
H147        H  0.42460960  0.94056583  0.26180642     0.05080
H148        H  0.36933762  0.84639349  0.32038038     0.04930
C149        C  0.13484556  0.84611347  0.25346277     0.01960
C150        C  0.12504800  0.86525254  0.21770523    -0.14190
C151        C  0.10405581  0.89872137  0.21749691    -0.00540
C152        C  0.09380496  0.91584776  0.25385420    -0.12710
C153        C  0.10347864  0.89762828  0.28966400     0.01960
C154        C  0.12373151  0.86252478  0.28925344    -0.12130
H155        H  0.13300728  0.85225942  0.18988140     0.07550
H156        H  0.07751984  0.94140058  0.25435491     0.05080
H157        H  0.13004475  0.84628971  0.31698643     0.04930
C158        C  0.36658304  0.22768232  0.26303589     0.01960
C159        C  0.38050779  0.21273947  0.22934623    -0.14190
C160        C  0.39595022  0.16759954  0.23063996    -0.00540
C161        C  0.39607117  0.13625829  0.26452182    -0.12710
C162        C  0.38487104  0.15392521  0.29941941     0.01960
C163        C  0.36958641  0.19924100  0.29846092    -0.12130
H164        H  0.37976765  0.23664167  0.20283621     0.07550
H165        H  0.40792702  0.10122519  0.26503658     0.05080
H166        H  0.36088695  0.21356189  0.32543212     0.04930
C167        C  0.17703087  0.73005254  0.22412531    -0.14510
C168        C  0.19407747  0.72955006  0.25527309     0.07640
C169        C  0.19169940  0.76745470  0.28563580    -0.14510
C170        C  0.17286614  0.80585078  0.28457515    -0.14510
C171        C  0.15554116  0.80637971  0.25362514     0.07640
C172        C  0.15779156  0.76763098  0.22353906    -0.14510
H173        H  0.17834417  0.70079372  0.20055248     0.11620
H174        H  0.20479171  0.76820259  0.30977069     0.11620
H175        H  0.17209536  0.83549102  0.30788158     0.11620
H176        H  0.14448178  0.76559610  0.19979400     0.11620
C177        C  0.30852998  0.76971776  0.28535979    -0.14510
C178        C  0.30711369  0.73205548  0.25468275     0.07640
C179        C  0.32476848  0.73380805  0.22403670    -0.14510
C180        C  0.34378293  0.77195502  0.22448284    -0.14510
C181        C  0.34523772  0.81000207  0.25515230     0.07640
C182        C  0.32716031  0.80859774  0.28535671    -0.14510
H183        H  0.29494389  0.76967715  0.30909466     0.11620
H184        H  0.32418395  0.70493691  0.20016083     0.11620
H185        H  0.35764021  0.77069107  0.20120986     0.11620
H186        H  0.32730584  0.83770616  0.30904988     0.11620
C187        C  0.16492143  0.36332795  0.23544065    -0.14510
C188        C  0.18694574  0.35899640  0.25721344     0.07640
C189        C  0.19154935  0.31213850  0.27856536    -0.14510
C190        C  0.17450242  0.27005622  0.27797150    -0.14510
C191        C  0.15298109  0.27348807  0.25500768     0.07640
C192        C  0.14822817  0.32048228  0.23384491    -0.14510
H193        H  0.16112242  0.39897978  0.21851758     0.11620
H194        H  0.20842475  0.30797024  0.29554337     0.11620
H195        H  0.17858541  0.23392992  0.29416256     0.11620
H196        H  0.13176836  0.32367013  0.21575502     0.11620
C197        C  0.30825524  0.30985916  0.27452717    -0.14510
C198        C  0.31562483  0.35942135  0.25916359     0.07640
C199        C  0.34020511  0.36610556  0.24578191    -0.14510
C200        C  0.35691405  0.32320128  0.24668744    -0.14510
C201        C  0.34938877  0.27362189  0.26194399     0.07640
C202        C  0.32503507  0.26757281  0.27625160    -0.14510
H203        H  0.28946656  0.30380370  0.28536409     0.11620
H204        H  0.34629741  0.40401990  0.23387207     0.11620
H205        H  0.37572220  0.32878078  0.23581924     0.11620
H206        H  0.31885075  0.22967002  0.28808106     0.11620
C207        C  0.20064274  0.59979661  0.11515063    -0.14510
C208        C  0.18913488  0.58301448  0.15040079     0.07640
C209        C  0.16308220  0.57722238  0.15102305    -0.14510
C210        C  0.14910876  0.58680576  0.11666795    -0.14510
C211        C  0.16104428  0.60151291  0.08115665     0.07640
C212        C  0.18689378  0.60861536  0.08120764    -0.14510
H213        H  0.22062214  0.60498604  0.11332430     0.11620
H214        H  0.15366086  0.56417744  0.17759075     0.11620
H215        H  0.12912869  0.58138711  0.11752800     0.11620
H216        H  0.19660887  0.62129243  0.05477973     0.11620
C217        C  0.14940198  0.58166551  0.39899983    -0.14510
C218        C  0.16106280  0.59821151  0.43413769     0.07640
C219        C  0.18678266  0.60738906  0.43347091    -0.14510
C220        C  0.20067559  0.59912469  0.39922283    -0.14510
C221        C  0.18944200  0.58083561  0.36429895     0.07640
C222        C  0.16352829  0.57258073  0.36437961    -0.14510
H223        H  0.12953083  0.57464186  0.39859424     0.11620
H224        H  0.19626024  0.62149768  0.45960442     0.11620
H225        H  0.22054233  0.60609426  0.40050607     0.11620
H226        H  0.15432877  0.55825501  0.33808152     0.11620
C227        C  0.34662503  0.55670174  0.10213955    -0.14510
C228        C  0.34083525  0.60158228  0.07920363     0.07640
C229        C  0.32207405  0.63656259  0.09205118    -0.14510
C230        C  0.30859593  0.62597812  0.12646756    -0.14510
C231        C  0.31382695  0.58056146  0.14912539     0.07640
C232        C  0.33326534  0.54637697  0.13708642    -0.14510
H233        H  0.36107314  0.52926677  0.09261001     0.11620
H234        H  0.31749015  0.67154264  0.07486083     0.11620
H235        H  0.29361586  0.65271422  0.13497936     0.11620
H236        H  0.33728382  0.51050295  0.15361366     0.11620
C237        C  0.31377126  0.61029261  0.43148940    -0.14510
C238        C  0.33970654  0.60525905  0.43194839     0.07640
C239        C  0.35215814  0.59188139  0.39644205    -0.14510
C240        C  0.33865055  0.58171240  0.36163885    -0.14510
C241        C  0.31253037  0.58551328  0.36182470     0.07640
C242        C  0.30047314  0.60089331  0.39713306    -0.14510
H243        H  0.30363159  0.62195238  0.45786153     0.11620
H244        H  0.37222104  0.58800432  0.39588993     0.11620
H245        H  0.34849139  0.56975436  0.33507786     0.11620
H246        H  0.28040661  0.60453080  0.39868346     0.11620
C247        C  0.34763622  0.36602701  0.10268688    -0.14510
C248        C  0.34385107  0.37216935  0.06196109     0.07640
C249        C  0.32083653  0.39256906  0.04904146    -0.14510
C250        C  0.30288957  0.40963164  0.07562324    -0.14510
C251        C  0.30671759  0.40432361  0.11598211     0.07640
C252        C  0.32897673  0.38158204  0.12962134    -0.14510
H253        H  0.36493180  0.34984874  0.11362926     0.11620
H254        H  0.31632660  0.39495533  0.01804897     0.11620
H255        H  0.28561311  0.42587960  0.06452678     0.11620
H256        H  0.33208716  0.37702401  0.16090703     0.11620
C257        C  0.35136555  0.42903842  0.41869118    -0.14510
C258        C  0.35586426  0.37432783  0.42494503     0.07640
C259        C  0.34071227  0.33677067  0.40570436    -0.14510
C260        C  0.31970567  0.35351452  0.38501439    -0.14510
C261        C  0.31329667  0.40800167  0.38376258     0.07640
C262        C  0.32989589  0.44560310  0.39936770    -0.14510
H263        H  0.36293932  0.45898808  0.43264999     0.11620
H264        H  0.34356868  0.29435677  0.40998300     0.11620
H265        H  0.30763657  0.32354165  0.37222674     0.11620
H266        H  0.32577619  0.48773095  0.39806300     0.11620
C267        C  0.16537339  0.33055711  0.10172355    -0.14510
C268        C  0.15097427  0.36749578  0.08084943     0.07640
C269        C  0.15451816  0.42239060  0.08756720    -0.14510
C270        C  0.17442498  0.44004807  0.11012507    -0.14510
C271        C  0.19054977  0.40319162  0.12762552     0.07640
C272        C  0.18497526  0.34835397  0.12524072    -0.14510
H273        H  0.16305977  0.28804551  0.09688258     0.11620
H274        H  0.14347254  0.45161388  0.07196929     0.11620
H275        H  0.17791486  0.48246132  0.11217654     0.11620
H276        H  0.19677002  0.31905487  0.13926093     0.11620
C277        C  0.15833367  0.42902344  0.43507415    -0.14510
C278        C  0.15239989  0.37445860  0.43777819     0.07640
C279        C  0.16483775  0.33779407  0.41318443    -0.14510
C280        C  0.18457137  0.35470527  0.38936593    -0.14510
C281        C  0.19234152  0.40836177  0.39024158     0.07640
C282        C  0.17843777  0.44562256  0.41215422    -0.14510
H283        H  0.14878986  0.45822199  0.45340007     0.11620
H284        H  0.16078295  0.29548082  0.41486444     0.11620
H285        H  0.19464621  0.32518653  0.37211699     0.11620
H286        H  0.18368446  0.48726389  0.41285551     0.11620
C287        C  0.09536484  0.14402172  0.34949087    -0.14510
C288        C  0.09199665  0.13795672  0.30860973     0.07640
C289        C  0.06948186  0.11533034  0.29518796    -0.14510
C290        C  0.05166411  0.09655474  0.32137851    -0.14510
C291        C  0.05502945  0.10243234  0.36183642     0.07640
C292        C  0.07680902  0.12691749  0.37596015    -0.14510
H293        H  0.11224348  0.16156778  0.36097272     0.11620
H294        H  0.06513574  0.11279871  0.26414274     0.11620
H295        H  0.03474796  0.07899551  0.30990995     0.11620
H296        H  0.07960259  0.13191817  0.40735538     0.11620
C297        C  0.08279790  0.07018378  0.14238466    -0.14510
C298        C  0.06611495  0.10783473  0.12725599     0.07640
C299        C  0.07224440  0.16235114  0.12955488    -0.14510
C300        C  0.09281641  0.17895879  0.15146025    -0.14510
C301        C  0.10766031  0.14116162  0.17086048     0.07640
C302        C  0.10380720  0.08663030  0.16295782    -0.14510
H303        H  0.07886347  0.02806072  0.14027044     0.11620
H304        H  0.06010531  0.19232424  0.11711500     0.11620
H305        H  0.09532213  0.22128791  0.15689423     0.11620
H306        H  0.11520562  0.05661143  0.17702694     0.11620
C307        C  0.05960905  0.19954703  0.98099845    -0.14510
C308        C  0.06538433  0.15204705  0.00074201     0.07640
C309        C  0.08771850  0.14822817  0.52167652    -0.14510
C310        C  0.10375404  0.19210025  0.52371443    -0.14510
C311        C  0.09786434  0.23967420  0.50402716     0.07640
C312        C  0.07586158  0.24279713  0.48223243    -0.14510
H313        H  0.04242560  0.20326947  0.96473254     0.11620
H314        H  0.09233668  0.11205923  0.53745217     0.11620
H315        H  0.12075332  0.18893702  0.54051464     0.11620
H316        H  0.07101036  0.27918570  0.96692897     0.11620
C317        C  0.42231035  0.06176454  0.35900862    -0.14510
C318        C  0.43703624  0.09892913  0.37931614     0.07640
C319        C  0.42879718  0.15217536  0.38229420    -0.14510
C320        C  0.40819423  0.16922602  0.36087269    -0.14510
C321        C  0.39551858  0.13317729  0.33635504     0.07640
C322        C  0.40126834  0.07846885  0.33868871    -0.14510
H323        H  0.42790174  0.02040235  0.35671606     0.11620
H324        H  0.43926916  0.18153143  0.39884828     0.11620
H325        H  0.40415606  0.21160173  0.35980610     0.11620
H326        H  0.39158121  0.04975188  0.32036336     0.11620
C327        C  0.45617190  0.12048925  0.18590287    -0.14510
C328        C  0.45016363  0.11596067  0.14613811     0.07640
C329        C  0.42692562  0.13396578  0.13275662    -0.14510
C330        C  0.40915566  0.15315250  0.15980364    -0.14510
C331        C  0.41488989  0.15542606  0.20008085     0.07640
C332        C  0.43896306  0.14121223  0.21242548    -0.14510
H333        H  0.47429370  0.10824454  0.19639945     0.11620
H334        H  0.42230306  0.13140826  0.10176867     0.11620
H335        H  0.39083179  0.16424992  0.14958743     0.11620
H336        H  0.44425102  0.14450863  0.24310821     0.11620
C337        C  0.41482080  0.14836369  0.48470181    -0.14510
C338        C  0.43711845  0.15268364  0.50583153     0.07640
C339        C  0.44237356  0.20022729  0.52622044    -0.14510
C340        C  0.42569288  0.24290213  0.52544066    -0.14510
C341        C  0.40386599  0.23942641  0.50321337     0.07640
C342        C  0.39847364  0.19188324  0.48283259    -0.14510
H343        H  0.41053189  0.11214937  0.46851332     0.11620
H344        H  0.45945996  0.20443634  0.54268036     0.11620
H345        H  0.43019721  0.27937312  0.54116281     0.11620
H346        H  0.38171124  0.18860558  0.46544435     0.11620
C347        C  0.41288030  0.93348481  0.40204108    -0.14510
C348        C  0.43850105  0.92181957  0.40293143     0.07640
C349        C  0.44958002  0.89833732  0.36931046    -0.14510
C350        C  0.43606221  0.88992159  0.33502273    -0.14510
C351        C  0.41087537  0.90376949  0.33325253     0.07640
C352        C  0.39909073  0.92406859  0.36743613    -0.14510
H353        H  0.40381852  0.95177612  0.42731233     0.11620
H354        H  0.46917494  0.88819952  0.36883088     0.11620
H355        H  0.44544154  0.87297481  0.30949752     0.11620
H356        H  0.37955615  0.93460527  0.36682228     0.11620
C357        C  0.40064838  0.92971906  0.15093291    -0.14510
C358        C  0.41254218  0.91490583  0.18623656     0.07640
C359        C  0.43857727  0.91078480  0.18609057    -0.14510
C360        C  0.45239051  0.92157108  0.15218743    -0.14510
C361        C  0.44077044  0.93689652  0.11692544     0.07640
C362        C  0.41465946  0.94095423  0.11661131    -0.14510
H363        H  0.38058524  0.93322998  0.15001116     0.11620
H364        H  0.44842061  0.89816723  0.21219454     0.11620
H365        H  0.47244238  0.91796902  0.15380816     0.11620
H366        H  0.40513983  0.95284120  0.09002774     0.11620
C367        C  0.44251019  0.74451113  0.47695926    -0.14510
C368        C  0.44415174  0.78220357  0.00766316     0.07640
C369        C  0.42605649  0.78198368  0.03765938    -0.14510
C370        C  0.40666467  0.74480157  0.03691897    -0.14510
C371        C  0.40521772  0.70622276  0.00659957     0.07640
C372        C  0.42341191  0.70668462  0.97661707    -0.14510
H373        H  0.45630477  0.74360838  0.45353713     0.11620
H374        H  0.42667965  0.81110016  0.06137170     0.11620
H375        H  0.39263203  0.74686925  0.05990561     0.11620
H376        H  0.42314055  0.67731294  0.95310248     0.11620
C377        C  0.05869868  0.88314895  0.37514000    -0.14510
C378        C  0.06330406  0.92953248  0.39738408     0.07640
C379        C  0.08202211  0.96491443  0.38473177    -0.14510
C380        C  0.09528445  0.95478045  0.34962253    -0.14510
C381        C  0.09023822  0.90875092  0.32719872     0.07640
C382        C  0.07219694  0.87262030  0.34061396    -0.14510
H383        H  0.04425240  0.85551092  0.38413313     0.11620
H384        H  0.08554072  0.00149081  0.40094891     0.11620
H385        H  0.10916156  0.98311854  0.33965356     0.11620
H386        H  0.06816883  0.83680081  0.32378421     0.11620
C387        C  0.05143803  0.91242170  0.14507327    -0.14510
C388        C  0.06343023  0.92743199  0.10975491     0.07640
C389        C  0.08954309  0.93144892  0.10950949    -0.14510
C390        C  0.10308230  0.92222301  0.14437553    -0.14510
C391        C  0.09065977  0.90936773  0.17993357     0.07640
C392        C  0.06475047  0.90381449  0.17941564    -0.14510
H393        H  0.03138820  0.90845170  0.14666205     0.11620
H394        H  0.09933298  0.94312761  0.08292165     0.11620
H395        H  0.12312906  0.92636182  0.14379025     0.11620
H396        H  0.05461797  0.89221017  0.20571997     0.11600
C397        C  0.07721951  0.70297060  0.03747911    -0.14510
C398        C  0.09520848  0.70111592  0.00713619     0.07640
C399        C  0.09408239  0.73967757  0.97706329    -0.14510
C400        C  0.07524733  0.77814084  0.97688246    -0.14510
C401        C  0.05739185  0.77984566  0.00723226     0.07640
C402        C  0.05868635  0.74223299  0.03772961    -0.14510
H403        H  0.07725328  0.67371250  0.06087073     0.11620
H404        H  0.10798478  0.74088716  0.95386617     0.11620
H405        H  0.07486155  0.80708570  0.45323831     0.11620
H406        H  0.04501470  0.74241459  0.06133687     0.11620
O407        O  0.46915078  0.03570998  0.88991689    -0.89340
C408        C  0.03719262  0.81985317  0.50648727     1.10700
O409        O  0.00079853  0.02844681  0.96389061    -1.37150
O410        O  0.47488416  0.83348657  0.97550245    -0.90830
O411        O  0.47189656  0.11541627  0.91934719    -0.91490
O412        O  0.44896647  0.06112426  0.00549783    -0.80320
O413        O  0.47741985  0.93505009  0.93094556    -1.02400
C414        C  0.45679825  0.94968190  0.58216356     1.20740
O415        O  0.50195012  0.03154853  0.54509261    -1.37300
Mn416      Mn  0.02857084  0.99710500  0.50402496     1.82060
O417        O  0.44887779  0.96847113  0.55031285    -0.79390
O418        O  0.47151721  0.84078811  0.54114155    -0.88790
C419        C  0.04747125  0.94286313  0.57588448     1.11830
C420        C  0.46472151  0.82129676  0.50821261     1.06550
O421        O  0.05381524  0.06049973  0.50292697    -0.80330
O422        O  0.00130433  0.93364786  0.50579873    -1.34020
O423        O  0.02501781  0.11861592  0.50169773    -0.99540
C424        C  0.46876951  0.09394711  0.61912996     1.05260
Mn425      Mn  0.50077947  0.89017383  0.55891413     1.48570
O426        O  0.47518697  0.12212717  0.58998760    -0.88740
Mn427      Mn  0.00082462  0.11336700  0.95958358     1.49560
O428        O  0.02534097  0.03888587  0.88167318    -0.92620
C429        C  0.45506243  0.93895911  0.93567780     1.18460
C430        C  0.03523482  0.08408145  0.88846994     1.10510
Mn431      Mn  0.47406845  0.99728167  0.00615906     1.80970
O432        O  0.02511265  0.94005889  0.58010125    -0.97770
Mn433      Mn  0.49912780  0.98906639  0.90861870     1.49260
C434        C  0.46084764  0.08236070  0.89711244     1.07030
Mn435      Mn  0.00398093  0.99627898  0.60116521     1.49930
C436        C  0.04239915  0.09008771  0.60967967     1.09940
O437        O  0.47776152  0.11945993  0.00431942    -1.03570
O438        O  0.02724651  0.83428911  0.53901722    -0.93230
C439        C  0.45553783  0.10912237  0.00535605     1.21220
O440        O  0.47917170  0.94366718  0.58484559    -1.03960
O441        O  0.03044533  0.83774402  0.97321897    -0.91360
O442        O  0.03423756  0.04373332  0.61799039    -0.90960
O443        O  0.02836827  0.11480908  0.91622537    -0.90990
Mn444      Mn  0.00165695  0.88658506  0.95389534     1.47860
O445        O  0.05507221  0.96489178  0.54484840    -0.79460
C446        C  0.04720250  0.10836638  0.50137913     1.14270
O447        O  0.44776184  0.96293833  0.96627821    -0.78190
O448        O  0.05343957  0.96611002  0.96117080    -0.77810
Mn449      Mn  0.50220275  0.11676810  0.54648591     1.51060
O450        O  0.47833743  0.04884469  0.62710383    -0.90160
O451        O  0.02390285  0.93678266  0.92603963    -0.97690
O452        O  0.03128419  0.12173553  0.58661184    -0.92700
C453        C  0.04617917  0.94396910  0.93005719     1.12060
C454        C  0.11448707  0.28633437  0.00611349     0.01960
C455        C  0.12263326  0.31096621  0.97112390    -0.14190
C456        C  0.13873615  0.35489288  0.97275315    -0.00540
C457        C  0.14583465  0.37488385  0.00945748    -0.12710
C458        C  0.13837173  0.35032662  0.54446748     0.01960
C459        C  0.12277712  0.30554238  0.54281503    -0.12130
H460        H  0.11727210  0.29463828  0.94277732     0.07550
H461        H  0.15949545  0.40668749  0.01076584     0.05080
H462        H  0.11727313  0.28564301  0.56980787     0.04930
C463        C  0.38761904  0.28672002  0.00020459     0.01960
C464        C  0.38247004  0.30920686  0.96312671    -0.14190
C465        C  0.36930725  0.35759638  0.96088628    -0.00540
C466        C  0.36256820  0.38356091  0.99590146    -0.12710
C467        C  0.36263045  0.35616886  0.53169243     0.01960
C468        C  0.37667090  0.30901191  0.53440413    -0.12130
H469        H  0.38840221  0.28902097  0.93633289     0.07550
H470        H  0.35299151  0.42156364  0.99453352     0.05080
H471        H  0.37800333  0.28809009  0.56218788     0.04930
C472        C  0.38465875  0.66622501  0.50602775     0.01960
C473        C  0.37392296  0.64992988  0.47006658    -0.14190
C474        C  0.35318110  0.61578118  0.46952076    -0.00540
C475        C  0.34342046  0.59715387  0.50565665    -0.12710
C476        C  0.35391772  0.61289400  0.54164964     0.01960
C477        C  0.37464307  0.64666739  0.54161747    -0.12130
H478        H  0.38061740  0.66654436  0.94255565     0.07550
H479        H  0.32700000  0.57204388  0.50594784     0.05080
H480        H  0.38243743  0.65884259  0.56961297     0.04930
C481        C  0.11554497  0.66045449  0.50743381     0.01960
C482        C  0.12629253  0.64453430  0.54338664    -0.14190
C483        C  0.14718592  0.61090124  0.54385104    -0.00540
C484        C  0.15706467  0.59235027  0.50775387    -0.12710
C485        C  0.14700662  0.60845141  0.97150393     0.01960
C486        C  0.12577897  0.64104709  0.97168562    -0.12130
H487        H  0.11958066  0.66126733  0.57096692     0.07550
H488        H  0.17344916  0.56709072  0.50780791     0.05080
H489        H  0.11806638  0.65346252  0.94379245     0.04930
O490        O  0.22401602  0.39044415  0.67101036    -0.89340
C491        C  0.28985837  0.42558480  0.86520803     1.10700
O492        O  0.25118144  0.48104151  0.71546469    -1.37150
O493        O  0.22336050  0.39419064  0.84216087    -0.90830
O494        O  0.22094994  0.46909050  0.64059844    -0.91490
O495        O  0.19785386  0.54608870  0.71510917    -0.80320
O496        O  0.22777289  0.39153096  0.75670443    -1.02400
C497        C  0.20582953  0.56705111  0.83012114     1.20740
O498        O  0.25114865  0.57795561  0.75556435    -1.37300
Mn499      Mn  0.27846237  0.51441818  0.75546809     1.82060
O500        O  0.19828866  0.54561025  0.79883919    -0.79390
O501        O  0.22426364  0.47075667  0.87610036    -0.88790
C502        C  0.29670695  0.56993584  0.82771954     1.11830
C503        C  0.21473610  0.42543806  0.86832983     1.06550
O504        O  0.30366171  0.54429179  0.71275633    -0.80330
O505        O  0.25136188  0.48188028  0.79665577    -1.34020
O506        O  0.27426369  0.57185024  0.67673200    -0.99540
C507        C  0.21459844  0.69049211  0.75573449     1.05260
Mn508      Mn  0.25199572  0.51989007  0.85220115     1.48570
O509        O  0.22347854  0.67459310  0.72288155    -0.88740
Mn510      Mn  0.25011154  0.51779729  0.65959861     1.49560
O511        O  0.28030873  0.39311602  0.67098006    -0.92620
C512        C  0.20554898  0.40218342  0.75666896     1.18460
C513        C  0.28701066  0.42288673  0.64271480     1.10510
Mn514      Mn  0.22395064  0.51421253  0.75630673     1.80970
O515        O  0.27432669  0.57389474  0.83134372    -0.97770
Mn516      Mn  0.25183700  0.39576673  0.71304791     1.49260
C517        C  0.21323663  0.42202673  0.64754709     1.07030
Mn518      Mn  0.25083836  0.62391887  0.80792844     1.49930
C519        C  0.28705492  0.69176703  0.75456767     1.09940
O520        O  0.22777515  0.57208890  0.68000046    -1.03570
O521        O  0.28137377  0.47207595  0.87270951    -0.93230
C522        C  0.20539586  0.56798373  0.68401840     1.21220
O523        O  0.22819163  0.57279351  0.83345928    -1.03960
O524        O  0.27944368  0.39350745  0.84157231    -0.91360
O525        O  0.27807159  0.67695608  0.78756626    -0.90960
O526        O  0.27684409  0.46740751  0.63500006    -0.90990
Mn527      Mn  0.25137042  0.39674109  0.80008696     1.47860
O528        O  0.30449157  0.54764943  0.79671736    -0.79460
C529        C  0.29655112  0.56569564  0.68139569     1.14270
O530        O  0.19904240  0.45023881  0.75607411    -0.78190
O531        O  0.30384925  0.45103656  0.75542621    -0.77810
Mn532      Mn  0.25127034  0.62255050  0.70277815     1.51060
O533        O  0.22269692  0.67495363  0.78889825    -0.90160
O534        O  0.27513137  0.39289235  0.75669522    -0.97690
O535        O  0.27941043  0.67418489  0.72155402    -0.92700
C536        C  0.29733098  0.40308974  0.75681290     1.12060
C537        C  0.13685971  0.22616733  0.75052518     0.01960
C538        C  0.13276436  0.20466692  0.71271073    -0.14190
C539        C  0.11947522  0.15688729  0.70843405    -0.00540
C540        C  0.11124528  0.13037099  0.74224205    -0.12710
C541        C  0.11077242  0.15617880  0.77889058     0.01960
C542        C  0.12501145  0.20298993  0.78354592    -0.12130
H543        H  0.13964156  0.22521096  0.68677709     0.07550
H544        H  0.10166730  0.09259514  0.73907445     0.05080
H545        H  0.12588897  0.22295645  0.81188703     0.04930
C546        C  0.36611761  0.84927969  0.75672780     0.01960
C547        C  0.37703774  0.86928494  0.72177832    -0.14190
C548        C  0.39843307  0.90153965  0.72310027    -0.00540
C549        C  0.40813354  0.91574350  0.76018889    -0.12710
C550        C  0.39756655  0.89633771  0.79534036     0.01960
C551        C  0.37650852  0.86359310  0.79337149    -0.12130
H552        H  0.36954903  0.85798479  0.69340737     0.07550
H553        H  0.42461023  0.94056817  0.76181129     0.05080
H554        H  0.36933717  0.84640085  0.82038825     0.04930
C555        C  0.13484694  0.84612420  0.75345841     0.01960
C556        C  0.12504857  0.86526093  0.71770070    -0.14190
C557        C  0.10405545  0.89872714  0.71749234    -0.00540
C558        C  0.09380412  0.91585211  0.75384961    -0.12710
C559        C  0.10347902  0.89763599  0.78965942     0.01960
C560        C  0.12373325  0.86253640  0.78924911    -0.12130
H561        H  0.13300784  0.85226759  0.68987691     0.07550
H562        H  0.07751804  0.94140210  0.75435044     0.05080
H563        H  0.13004706  0.84630293  0.81698228     0.04930
C564        C  0.36658641  0.22769532  0.76304975     0.01960
C565        C  0.38050679  0.21273623  0.72935935    -0.14190
C566        C  0.39594461  0.16758860  0.73065680    -0.00540
C567        C  0.39606380  0.13625648  0.76454352    -0.12710
C568        C  0.38487165  0.15394368  0.79944189     0.01960
C569        C  0.36959195  0.19926655  0.79847966    -0.12130
H570        H  0.37976628  0.23663083  0.70284566     0.07550
H571        H  0.40791371  0.10121433  0.76506087     0.05080
H572        H  0.36089739  0.21360123  0.82545085     0.04930
C573        C  0.17703045  0.73005891  0.72412434    -0.14510
C574        C  0.19407689  0.72955678  0.75527234     0.07640
C575        C  0.19169970  0.76746383  0.78563352    -0.14510
C576        C  0.17286736  0.80586179  0.78457126    -0.14510
C577        C  0.15554237  0.80639013  0.75362127     0.07640
C578        C  0.15779197  0.76763924  0.72353658    -0.14510
H579        H  0.17834322  0.70079843  0.70055256     0.11620
H580        H  0.20479206  0.76821217  0.80976834     0.11620
H581        H  0.17209720  0.83550369  0.80787658     0.11620
H582        H  0.14448213  0.76560397  0.69979161     0.11620
C583        C  0.30852841  0.76972422  0.78536288    -0.14510
C584        C  0.30711233  0.73206316  0.75468485     0.07640
C585        C  0.32476827  0.73381457  0.72404063    -0.14510
C586        C  0.34378350  0.77195952  0.72448928    -0.14510
C587        C  0.34523788  0.81000594  0.75515933     0.07640
C588        C  0.32715961  0.80860228  0.78536233    -0.14510
H589        H  0.29494160  0.76968397  0.80909671     0.11620
H590        H  0.32418411  0.70494390  0.70016440     0.11620
H591        H  0.35764159  0.77069460  0.70121756     0.11620
H592        H  0.32730501  0.83770992  0.80905601     0.11620
C593        C  0.16492591  0.36333200  0.73543623    -0.14510
C594        C  0.18694803  0.35899944  0.75721453     0.07640
C595        C  0.19154933  0.31214053  0.77856639    -0.14510
C596        C  0.17450224  0.27005838  0.77796710    -0.14510
C597        C  0.15298305  0.27349125  0.75499793     0.07640
C598        C  0.14823258  0.32048678  0.73383523    -0.14510
H599        H  0.16112867  0.39898464  0.71851308     0.11620
H600        H  0.20842298  0.30797158  0.79554866     0.11620
H601        H  0.17858349  0.23393152  0.79415857     0.11620
H602        H  0.13177441  0.32367655  0.71574181     0.11620
C603        C  0.30825959  0.30987452  0.77453754    -0.14510
C604        C  0.31562801  0.35943292  0.75916624     0.07640
C605        C  0.34020739  0.36611421  0.74577927    -0.14510
C606        C  0.35691661  0.32321022  0.74668772    -0.14510
C607        C  0.34939247  0.27363501  0.76195296     0.07640
C608        C  0.32503968  0.26758924  0.77626523    -0.14510
H609        H  0.28947165  0.30382138  0.78537850     0.11620
H610        H  0.34629867  0.40402571  0.73386322     0.11620
H611        H  0.37572400  0.32878679  0.73581537     0.11620
H612        H  0.31885624  0.22968953  0.78810123     0.11620
C613        C  0.20064320  0.59978890  0.61515101    -0.14510
C614        C  0.18913470  0.58301255  0.65040225     0.07640
C615        C  0.16308194  0.57722258  0.65102427    -0.14510
C616        C  0.14910898  0.58680385  0.61666828    -0.14510
C617        C  0.16104507  0.60150621  0.58115628     0.07640
C618        C  0.18689475  0.60860517  0.58120720    -0.14510
H619        H  0.22062273  0.60497610  0.61332459     0.11620
H620        H  0.15366011  0.56418185  0.67759268     0.11620
H621        H  0.12912875  0.58138796  0.61752842     0.11620
H622        H  0.19661036  0.62127849  0.55477878     0.11620
C623        C  0.14940170  0.58166852  0.89900124    -0.14510
C624        C  0.16106188  0.59821851  0.93413857     0.07640
C625        C  0.18678144  0.60740024  0.93347164    -0.14510
C626        C  0.20067478  0.59913551  0.89922401    -0.14510
C627        C  0.18944192  0.58084202  0.86430082     0.07640
C628        C  0.16352844  0.57258355  0.86438149    -0.14510
H629        H  0.12953080  0.57464159  0.89859580     0.11620
H630        H  0.19625845  0.62151194  0.95960478     0.11620
H631        H  0.22054130  0.60610809  0.90050710     0.11620
H632        H  0.15432947  0.55825447  0.83808389     0.11620
C633        C  0.34662711  0.55670401  0.60214406    -0.14510
C634        C  0.34083470  0.60157649  0.57920133     0.07640
C635        C  0.32207028  0.63655323  0.59204222    -0.14510
C636        C  0.30859193  0.62597314  0.62645913    -0.14510
C637        C  0.31382559  0.58056415  0.64912377     0.07640
C638        C  0.33326685  0.54638324  0.63709105    -0.14510
H639        H  0.36107773  0.52927192  0.59261972     0.11620
H640        H  0.31748441  0.67152735  0.57484666     0.11620
H641        H  0.29360978  0.65270657  0.63496616     0.11620
H642        H  0.33728749  0.51051485  0.65362357     0.11620
C643        C  0.31377032  0.61029924  0.93149182    -0.14510
C644        C  0.33970577  0.60527024  0.93195047     0.07640
C645        C  0.35215786  0.59189788  0.89644343    -0.14510
C646        C  0.33865065  0.58172937  0.86163980    -0.14510
C647        C  0.31253035  0.58552599  0.86182585     0.07640
C648        C  0.30047258  0.60090096  0.89713500    -0.14510
H649        H  0.30363025  0.62195495  0.95786453     0.11620
H650        H  0.37222092  0.58802458  0.89589106     0.11620
H651        H  0.34849190  0.56977526  0.83507824     0.11620
H652        H  0.28040591  0.60453486  0.89868567     0.11620
C653        C  0.34762924  0.36601128  0.60268401    -0.14510
C654        C  0.34384540  0.37216459  0.56195875     0.07640
C655        C  0.32083421  0.39258378  0.54904092    -0.14510
C656        C  0.30288927  0.40965121  0.57562421    -0.14510
C657        C  0.30671559  0.40432917  0.61598247     0.07640
C658        C  0.32897150  0.38157117  0.62961965    -0.14510
H659        H  0.36492217  0.34981871  0.61362529     0.11620
H660        H  0.31632437  0.39497900  0.51804887     0.11620
H661        H  0.28561508  0.42591192  0.56452903     0.11620
H662        H  0.33208059  0.37700226  0.66090480     0.11620
C663        C  0.35136915  0.42906968  0.91869988    -0.14510
C664        C  0.35587271  0.37435991  0.92494921     0.07640
C665        C  0.34072452  0.33679978  0.90570402    -0.14510
C666        C  0.31971709  0.35353852  0.88501337    -0.14510
C667        C  0.31330326  0.40802336  0.88376551     0.07640
C668        C  0.32989865  0.44562874  0.89937595    -0.14510
H669        H  0.36293971  0.45902192  0.93266243     0.11620
H670        H  0.34358460  0.29438636  0.90997916     0.11620
H671        H  0.30765111  0.32356279  0.87222197     0.11620
H672        H  0.32577518  0.48775509  0.89807537     0.11620
C673        C  0.16537496  0.33055300  0.60172631    -0.14510
C674        C  0.15097599  0.36749000  0.58085032     0.07640
C675        C  0.15451972  0.42238531  0.58756642    -0.14510
C676        C  0.17442557  0.44004475  0.61012580    -0.14510
C677        C  0.19055003  0.40319002  0.62762907     0.07640
C678        C  0.18497604  0.34835190  0.62524478    -0.14510
H679        H  0.16306153  0.28804113  0.59688648     0.11620
H680        H  0.14347442  0.45160745  0.57196680     0.11620
H681        H  0.17791496  0.48245829  0.61217644     0.11620
H682        H  0.19677056  0.31905397  0.63926679     0.11620
C683        C  0.15833676  0.42903092  0.93507394    -0.14510
C684        C  0.15240385  0.37446586  0.93777880     0.07640
C685        C  0.16484356  0.33780062  0.91318794    -0.14510
C686        C  0.18457787  0.35471170  0.88937136    -0.14510
C687        C  0.19234684  0.40836877  0.89024613     0.07640
C688        C  0.17844163  0.44563002  0.91215598    -0.14510
H689        H  0.14879142  0.45822989  0.95339750     0.11620
H690        H  0.16078954  0.29548710  0.91486875     0.11620
H691        H  0.19465394  0.32519273  0.87212443     0.11620
H692        H  0.18368755  0.48727180  0.91285635     0.11620
C693        C  0.09537668  0.14400825  0.84947916    -0.14510
C694        C  0.09200721  0.13793895  0.80859847     0.07640
C695        C  0.06949299  0.11530515  0.79518061    -0.14510
C696        C  0.05167662  0.09653098  0.82137407    -0.14510
C697        C  0.05504236  0.10241700  0.86183128     0.07640
C698        C  0.07682210  0.12690547  0.87595128    -0.14510
H699        H  0.11225487  0.16155902  0.86095872     0.11620
H700        H  0.06514499  0.11276968  0.76413632     0.11620
H701        H  0.03476049  0.07896873  0.80990795     0.11620
H702        H  0.07961633  0.13191207  0.90734585     0.11620
C703        C  0.08279313  0.07020275  0.64236456    -0.14510
C704        C  0.06610226  0.10784929  0.62725172     0.07640
C705        C  0.07222409  0.16236888  0.62956156    -0.14510
C706        C  0.09279768  0.17898051  0.65146182    -0.14510
C707        C  0.10765075  0.14118458  0.67084590     0.07640
C708        C  0.10380345  0.08665402  0.66293317    -0.14510
H709        H  0.07886469  0.02807802  0.64024069     0.11620
H710        H  0.06007846  0.19233931  0.61713405     0.11620
H711        H  0.09529853  0.22130891  0.65690478     0.11620
H712        H  0.11520843  0.05663658  0.67699071     0.11620
C713        C  0.05959410  0.19956350  0.48101165    -0.14510
C714        C  0.06536936  0.15205904  0.50074963     0.07640
C715        C  0.08773201  0.14822192  0.02167311    -0.14510
C716        C  0.10376552  0.19209728  0.02371113    -0.14510
C717        C  0.09787490  0.23966781  0.00401997     0.07640
C718        C  0.07587431  0.24278351  0.98221964    -0.14510
H719        H  0.04240973  0.20329053  0.46474872     0.11620
H720        H  0.09234985  0.11205626  0.03745307     0.11620
H721        H  0.12076342  0.18893996  0.04051546     0.11620
H722        H  0.07099821  0.27920202  0.46694479     0.11620
C723        C  0.42231277  0.06179155  0.85903367    -0.14510
C724        C  0.43704743  0.09895730  0.87932380     0.07640
C725        C  0.42881542  0.15220934  0.88229278    -0.14510
C726        C  0.40820966  0.16926108  0.86087843    -0.14510
C727        C  0.39552407  0.13320760  0.83637745     0.07640
C728        C  0.40126796  0.07849740  0.83872187    -0.14510
H729        H  0.42789885  0.02042557  0.85674855     0.11620
H730        H  0.43929449  0.18156716  0.89883383     0.11620
H731        H  0.40417626  0.21163840  0.85980306     0.11620
H732        H  0.39157335  0.04977714  0.82040936     0.11620
C733        C  0.45615813  0.12043276  0.68591312    -0.14510
C734        C  0.45015158  0.11593094  0.64614614     0.07640
C735        C  0.42691683  0.13395985  0.63276739    -0.14510
C736        C  0.40914878  0.15314694  0.65981772    -0.14510
C737        C  0.41488163  0.15539760  0.70009624     0.07640
C738        C  0.43895182  0.14115675  0.71243922    -0.14510
H739        H  0.47427762  0.10817048  0.69640855     0.11620
H740        H  0.42229540  0.13142304  0.60177816     0.11620
H741        H  0.39082768  0.16426605  0.64960198     0.11620
H742        H  0.44424050  0.14443802  0.74312241     0.11620
C743        C  0.41483704  0.14839781  0.98469886    -0.14510
C744        C  0.43713551  0.15271556  0.00582672     0.07640
C745        C  0.44239292  0.20026087  0.02621237    -0.14510
C746        C  0.42571316  0.24293814  0.02543252    -0.14510
C747        C  0.40388481  0.23946309  0.00320847     0.07640
C748        C  0.39849085  0.19191923  0.98282968    -0.14510
H749        H  0.41054621  0.11218266  0.96851272     0.11620
H750        H  0.45947992  0.20446846  0.04267096     0.11620
H751        H  0.43021873  0.27940942  0.04115335     0.11620
H752        H  0.38172739  0.18864172  0.96544398     0.11620
C753        C  0.41288152  0.93349853  0.90204629    -0.14510
C754        C  0.43850256  0.92183576  0.90293570     0.07640
C755        C  0.44958110  0.89835113  0.86931526    -0.14510
C756        C  0.43606271  0.88993132  0.83502869    -0.14510
C757        C  0.41087567  0.90377763  0.83325890     0.07640
C758        C  0.39909141  0.92407879  0.86744224    -0.14510
H759        H  0.40381998  0.95179106  0.92731726     0.11620
H760        H  0.46917615  0.88821447  0.86883501     0.11620
H761        H  0.44544183  0.87298290  0.80950388     0.11620
H762        H  0.37955670  0.93461432  0.86682882     0.11620
C763        C  0.40064761  0.92971298  0.65093816    -0.14510
C764        C  0.41254199  0.91490351  0.68624216     0.07640
C765        C  0.43857697  0.91077979  0.68609501    -0.14510
C766        C  0.45238957  0.92155936  0.65218999    -0.14510
C767        C  0.44076884  0.93688081  0.61692758     0.07640
C768        C  0.41465800  0.94094145  0.61661485    -0.14510
H769        H  0.38058453  0.93322591  0.65001736     0.11620
H770        H  0.44842061  0.89816494  0.71219942     0.11620
H771        H  0.47244142  0.91795561  0.65380959     0.11620
H772        H  0.40513793  0.95282609  0.59003109     0.11620
C773        C  0.44250587  0.74453042  0.97696072    -0.14510
C774        C  0.44415573  0.78218501  0.50766132     0.07640
C775        C  0.42606023  0.78196534  0.53765715    -0.14510
C776        C  0.40666838  0.74478338  0.53691660    -0.14510
C777        C  0.40522153  0.70620417  0.50659747     0.07640
C778        C  0.42341609  0.70666531  0.47661546    -0.14510
H779        H  0.45630030  0.74362771  0.95353837     0.11620
H780        H  0.42668301  0.81108241  0.56136911     0.11620
H781        H  0.39263548  0.74685196  0.55990278     0.11620
H782        H  0.42314472  0.67729348  0.45310097     0.11620
C783        C  0.05868743  0.88316465  0.87512015    -0.14510
C784        C  0.06330450  0.92952792  0.89738121     0.07640
C785        C  0.08203373  0.96489298  0.88474453    -0.14510
C786        C  0.09529626  0.95476272  0.84963485    -0.14510
C787        C  0.09023784  0.90875494  0.82719380     0.07640
C788        C  0.07218469  0.87264068  0.84059256    -0.14510
H789        H  0.04423280  0.85553950  0.88410119     0.11620
H790        H  0.08556166  0.00145459  0.90097465     0.11620
H791        H  0.10918282  0.98308774  0.83967869     0.11620
H792        H  0.06814748  0.83683731  0.82374972     0.11620
C793        C  0.05143688  0.91242444  0.64507002    -0.14510
C794        C  0.06342849  0.92743623  0.60975153     0.07640
C795        C  0.08954129  0.93145469  0.60950538    -0.14510
C796        C  0.10308098  0.92222923  0.64437102    -0.14510
C797        C  0.09065900  0.90937222  0.67992920     0.07640
C798        C  0.06474979  0.90381715  0.67941183    -0.14510
H799        H  0.03138713  0.90845311  0.64665939     0.11620
H800        H  0.09933072  0.94313434  0.58291736     0.11620
H801        H  0.12312768  0.92636952  0.64378533     0.11620
H802        H  0.05461768  0.89221145  0.70571620     0.11600
C803        C  0.07722279  0.70297066  0.53747802    -0.14510
C804        C  0.09521192  0.70111582  0.50713541     0.07640
C805        C  0.09408637  0.73967793  0.47706274    -0.14510
C806        C  0.07525144  0.77814156  0.47688166    -0.14510
C807        C  0.05739564  0.77984607  0.50723099     0.07640
C808        C  0.05868983  0.74223327  0.53772828    -0.14510
H809        H  0.07725613  0.67371219  0.56086939     0.11620
H810        H  0.10798894  0.74088718  0.45386587     0.11620
H811        H  0.07485728  0.80708493  0.95323907     0.11620
H812        H  0.04501790  0.74241454  0.56133512     0.11620
O813        O  0.96914394  0.03569298  0.38991275    -0.89340
C814        C  0.53718945  0.81985440  0.00648917     1.10700
O815        O  0.50079002  0.02843894  0.46389046    -1.37150
O816        O  0.97488694  0.83347186  0.47550028    -0.90830
O817        O  0.97188030  0.11539632  0.41934950    -0.91490
O818        O  0.94895517  0.06109651  0.50549814    -0.80320
O819        O  0.97741786  0.93503586  0.43094257    -1.02400
C820        C  0.95680077  0.94970117  0.08216300     1.20740
O821        O  0.00195877  0.03155713  0.04509267    -1.37300
Mn822      Mn  0.52857738  0.99710408  0.00402563     1.82060
O823        O  0.94888160  0.96849620  0.05031333    -0.79390
O824        O  0.97151471  0.84080328  0.04114358    -0.88790
C825        C  0.54747373  0.94286037  0.07588732     1.11830
C826        C  0.96471830  0.82131315  0.00821469     1.06550
O827        O  0.55382718  0.06048960  0.00292658    -0.80330
O828        O  0.50130634  0.93365638  0.00580018    -1.34020
O829        O  0.52503272  0.11861117  0.00169562    -0.99540
C830        C  0.96878176  0.09396967  0.11912633     1.05260
Mn831      Mn  0.00077930  0.89018274  0.05891581     1.48570
O832        O  0.97520422  0.12214851  0.08998611    -0.88740
Mn833      Mn  0.50080917  0.11335951  0.45958542     1.49560
O834        O  0.52533382  0.03888769  0.38167547    -0.92620
C835        C  0.95506023  0.93894026  0.43567500     1.18460
C836        C  0.53522259  0.08408844  0.38847258     1.10510
Mn837      Mn  0.97406226  0.99726397  0.50615851     1.80970
O838        O  0.52511491  0.94006176  0.08010412    -0.97770
Mn839      Mn  0.99912321  0.98905857  0.40861766     1.49260
C840        C  0.96083598  0.08233915  0.39711013     1.07030
Mn841      Mn  0.50398556  0.99628780  0.10116598     1.49930
C842        C  0.54241138  0.09008181  0.10968086     1.09940
O843        O  0.97774610  0.11944091  0.50432127    -1.03570
O844        O  0.52724399  0.83429189  0.03901935    -0.93230
C845        C  0.95552323  0.10909638  0.50535800     1.21220
O846        O  0.97917393  0.94368199  0.08484519    -1.03960
O847        O  0.53044816  0.83774191  0.47321703    -0.91360
O848        O  0.53424428  0.04373297  0.11799439    -0.90960
O849        O  0.52835201  0.11481387  0.41622684    -0.90990
Mn850      Mn  0.50165743  0.88657686  0.45389345     1.47860
O851        O  0.55507609  0.96488408  0.04485013    -0.79460
C852        C  0.54721672  0.10835728  0.00137628     1.14270
O853        O  0.94775837  0.96291408  0.46627694    -0.78190
O854        O  0.55343527  0.96611953  0.46117020    -0.77810
Mn855      Mn  0.00221862  0.11677630  0.04648400     1.51060
O856        O  0.97834409  0.04886192  0.12710082    -0.90160
O857        O  0.52390108  0.93678042  0.42603876    -0.97690
O858        O  0.53130119  0.12173144  0.08660861    -0.92700
C859        C  0.54617689  0.94397317  0.43005753     1.12060
C860        C  0.61448055  0.28633540  0.50611812     0.01960
C861        C  0.62262731  0.31096413  0.47112727    -0.14190
C862        C  0.63873396  0.35488510  0.47275453    -0.00540
C863        C  0.64583628  0.37487249  0.50945802    -0.12710
C864        C  0.63837065  0.35033431  0.04446592     0.01960
C865        C  0.62277979  0.30554449  0.04281137    -0.12130
H866        H  0.61726316  0.29463877  0.44278137     0.07550
H867        H  0.65949930  0.40667191  0.51076478     0.05080
H868        H  0.61727632  0.28564240  0.06980337     0.04930
C869        C  0.88760193  0.28668466  0.50020558     0.01960
C870        C  0.88245523  0.30916881  0.46312629    -0.14190
C871        C  0.86929771  0.35756430  0.46088271    -0.00540
C872        C  0.86256200  0.38353728  0.49589610    -0.12710
C873        C  0.86263940  0.35618779  0.03169571     0.01960
C874        C  0.87668535  0.30903786  0.03440467    -0.12130
H875        H  0.88838561  0.28897721  0.43633382     0.07550
H876        H  0.85299050  0.42154570  0.49452547     0.05080
H877        H  0.87801919  0.28811298  0.06218701     0.04930
C878        C  0.88465566  0.66624216  0.00603014     0.01960
C879        C  0.87392025  0.64994608  0.97006902    -0.14190
C880        C  0.85318002  0.61579308  0.96952295    -0.00540
C881        C  0.84342058  0.59716223  0.00565868    -0.12710
C882        C  0.85391727  0.61290399  0.04165178     0.01960
C883        C  0.87464090  0.64668234  0.04161977    -0.12130
H884        H  0.88062103  0.66652603  0.44255307     0.07550
H885        H  0.82700133  0.57204861  0.00594967     0.05080
H886        H  0.88243492  0.65885855  0.06961527     0.04930
C887        C  0.61554226  0.66045609  0.00743465     0.01960
C888        C  0.62629037  0.64453730  0.04338746    -0.14190
C889        C  0.64718477  0.61090706  0.04385167    -0.00540
C890        C  0.65706397  0.59235740  0.00775452    -0.12710
C891        C  0.64700787  0.60844583  0.47150318     0.01960
C892        C  0.62578121  0.64104448  0.47168484    -0.12130
H893        H  0.61957810  0.66126936  0.07096782     0.07550
H894        H  0.67344920  0.56710006  0.00780849     0.05080
H895        H  0.61806903  0.65346119  0.44379169     0.04930
O896        O  0.72401593  0.39044195  0.17100474    -0.89340
C897        C  0.78985298  0.42556875  0.36520537     1.10700
O898        O  0.75118074  0.48103608  0.21546151    -1.37150
O899        O  0.72335451  0.39418382  0.34215444    -0.90830
O900        O  0.72095077  0.46908919  0.14059398    -0.91490
O901        O  0.69785412  0.54608669  0.21510603    -0.80320
O902        O  0.72777032  0.39152735  0.25669830    -1.02400
C903        C  0.70582914  0.56704552  0.33011850     1.20740
O904        O  0.75114884  0.57794876  0.25556255    -1.37300
Mn905      Mn  0.77846151  0.51440928  0.25546621     1.82060
O906        O  0.69828795  0.54560623  0.29883612    -0.79390
O907        O  0.72426006  0.47074751  0.37609656    -0.88790
C908        C  0.79670653  0.56992327  0.32771885     1.11830
C909        C  0.71473103  0.42543052  0.36832468     1.06550
O910        O  0.80366178  0.54428282  0.21275556    -0.80330
O911        O  0.75135995  0.48187206  0.29665270    -1.34020
O912        O  0.77426460  0.57184511  0.17673091    -0.99540
C913        C  0.71459952  0.69048636  0.25573409     1.05260
Mn914      Mn  0.75199384  0.51987974  0.35219871     1.48570
O915        O  0.72347915  0.67458750  0.22288075    -0.88740
Mn916      Mn  0.75011243  0.51779338  0.15959573     1.49560
O917        O  0.78030878  0.39311050  0.17097762    -0.92620
C918        C  0.70554655  0.40218023  0.25666317     1.18460
C919        C  0.78701171  0.42288139  0.14271297     1.10510
Mn920      Mn  0.72394980  0.51420767  0.25630344     1.80970
O921        O  0.77432630  0.57388370  0.33134298    -0.97770
Mn922      Mn  0.75183566  0.39576157  0.21304358     1.49260
C923        C  0.71323691  0.42202593  0.14754227     1.07030
Mn924      Mn  0.75083920  0.62391063  0.30792733     1.49930
C925        C  0.78705636  0.69175896  0.25456697     1.09940
O926        O  0.72777579  0.57208547  0.17999721    -1.03570
O927        O  0.78137059  0.47206179  0.37270665    -0.93230
C928        C  0.70539639  0.56798164  0.18401545     1.21220
O929        O  0.72819132  0.57278602  0.33345675    -1.03960
O930        O  0.77943713  0.39349342  0.34156975    -0.91360
O931        O  0.77807367  0.67694685  0.28756587    -0.90960
O932        O  0.77684539  0.46740243  0.13499762    -0.90990
Mn933      Mn  0.75136604  0.39673275  0.30008248     1.47860
O934        O  0.80449086  0.54763712  0.29671643    -0.79460
C935        C  0.79655188  0.56568966  0.18139557     1.14270
O936        O  0.69904029  0.45023581  0.25606892    -0.78190
O937        O  0.80384719  0.45102573  0.25542496    -0.77810
Mn938      Mn  0.75127104  0.62254514  0.20277683     1.51060
O939        O  0.72269860  0.67494783  0.28889747    -0.90160
O940        O  0.77512854  0.39288321  0.25669263    -0.97690
O941        O  0.77941099  0.67417835  0.22155352    -0.92700
C942        C  0.79732826  0.40307929  0.25681159     1.12060
C943        C  0.63685871  0.22616305  0.25053796     0.01960
C944        C  0.63276958  0.20465063  0.21272567    -0.14190
C945        C  0.61947915  0.15687238  0.20845137    -0.00540
C946        C  0.61124203  0.13036880  0.24226061    -0.12710
C947        C  0.61076551  0.15618698  0.27890506     0.01960
C948        C  0.62500516  0.20299735  0.28355828    -0.12130
H949        H  0.63965185  0.22518587  0.18679151     0.07550
H950        H  0.60166175  0.09259515  0.23909588     0.05080
H951        H  0.62587903  0.22297192  0.31189670     0.04930
C952        C  0.86611760  0.84927569  0.25672015     0.01960
C953        C  0.87703783  0.86928226  0.22177089    -0.14190
C954        C  0.89843297  0.90153807  0.22309382    -0.00540
C955        C  0.90813320  0.91574039  0.26018299    -0.12710
C956        C  0.89756645  0.89633207  0.29533370     0.01960
C957        C  0.87650867  0.86358733  0.29336397    -0.12130
H958        H  0.86954929  0.85798280  0.19339967     0.07550
H959        H  0.92460960  0.94056583  0.26180642     0.05080
H960        H  0.86933762  0.84639349  0.32038037     0.04930
C961        C  0.63484556  0.84611347  0.25346277     0.01960
C962        C  0.62504800  0.86525254  0.21770523    -0.14190
C963        C  0.60405581  0.89872137  0.21749690    -0.00540
C964        C  0.59380496  0.91584776  0.25385420    -0.12710
C965        C  0.60347864  0.89762828  0.28966400     0.01960
C966        C  0.62373151  0.86252479  0.28925344    -0.12130
H967        H  0.63300728  0.85225942  0.18988139     0.07550
H968        H  0.57751984  0.94140057  0.25435490     0.05080
H969        H  0.63004475  0.84628971  0.31698643     0.04930
C970        C  0.86658303  0.22768232  0.26303588     0.01960
C971        C  0.88050778  0.21273947  0.22934622    -0.14190
C972        C  0.89595023  0.16759954  0.23063996    -0.00540
C973        C  0.89607117  0.13625830  0.26452181    -0.12710
C974        C  0.88487104  0.15392521  0.29941940     0.01960
C975        C  0.86958640  0.19924099  0.29846091    -0.12130
H976        H  0.87976765  0.23664167  0.20283620     0.07550
H977        H  0.90792703  0.10122520  0.26503658     0.05080
H978        H  0.86088694  0.21356188  0.32543211     0.04930
C979        C  0.67703087  0.73005255  0.22412530    -0.14510
C980        C  0.69407748  0.72955007  0.25527308     0.07640
C981        C  0.69169940  0.76745470  0.28563580    -0.14510
C982        C  0.67286614  0.80585078  0.28457515    -0.14510
C983        C  0.65554116  0.80637971  0.25362513     0.07640
C984        C  0.65779156  0.76763098  0.22353905    -0.14510
H985        H  0.67834417  0.70079372  0.20055247     0.11620
H986        H  0.70479171  0.76820259  0.30977069     0.11620
H987        H  0.67209536  0.83549103  0.30788157     0.11620
H988        H  0.64448178  0.76559610  0.19979399     0.11620
C989        C  0.80852997  0.76971776  0.28535978    -0.14510
C990        C  0.80711369  0.73205548  0.25468275     0.07640
C991        C  0.82476848  0.73380805  0.22403670    -0.14510
C992        C  0.84378293  0.77195502  0.22448283    -0.14510
C993        C  0.84523772  0.81000207  0.25515230     0.07640
C994        C  0.82716031  0.80859774  0.28535671    -0.14510
H995        H  0.79494389  0.76967715  0.30909466     0.11620
H996        H  0.82418395  0.70493691  0.20016083     0.11620
H997        H  0.85764021  0.77069107  0.20120986     0.11620
H998        H  0.82730584  0.83770616  0.30904987     0.11620
C999        C  0.66492143  0.36332795  0.23544064    -0.14510
C1000       C  0.68694573  0.35899641  0.25721344     0.07640
C1001       C  0.69154934  0.31213850  0.27856536    -0.14510
C1002       C  0.67450241  0.27005623  0.27797150    -0.14510
C1003       C  0.65298108  0.27348807  0.25500767     0.07640
C1004       C  0.64822817  0.32048228  0.23384490    -0.14510
H1005       H  0.66112242  0.39897978  0.21851758     0.11620
H1006       H  0.70842474  0.30797024  0.29554337     0.11620
H1007       H  0.67858540  0.23392992  0.29416255     0.11620
H1008       H  0.63176836  0.32367013  0.21575501     0.11620
C1009       C  0.80825524  0.30985916  0.27452717    -0.14510
C1010       C  0.81562482  0.35942134  0.25916359     0.07640
C1011       C  0.84020510  0.36610556  0.24578191    -0.14510
C1012       C  0.85691405  0.32320128  0.24668743    -0.14510
C1013       C  0.84938876  0.27362188  0.26194399     0.07640
C1014       C  0.82503507  0.26757281  0.27625159    -0.14510
H1015       H  0.78946655  0.30380369  0.28536408     0.11620
H1016       H  0.84629740  0.40401990  0.23387207     0.11620
H1017       H  0.87572219  0.32878078  0.23581924     0.11620
H1018       H  0.81885074  0.22967002  0.28808106     0.11620
C1019       C  0.70064274  0.59979661  0.11515063    -0.14510
C1020       C  0.68913488  0.58301448  0.15040078     0.07640
C1021       C  0.66308220  0.57722238  0.15102305    -0.14510
C1022       C  0.64910876  0.58680576  0.11666795    -0.14510
C1023       C  0.66104428  0.60151291  0.08115665     0.07640
C1024       C  0.68689378  0.60861537  0.08120764    -0.14510
H1025       H  0.72062214  0.60498604  0.11332430     0.11620
H1026       H  0.65366085  0.56417744  0.17759075     0.11620
H1027       H  0.62912869  0.58138711  0.11752800     0.11620
H1028       H  0.69660887  0.62129243  0.05477973     0.11620
C1029       C  0.64940198  0.58166551  0.39899983    -0.14510
C1030       C  0.66106280  0.59821151  0.43413769     0.07640
C1031       C  0.68678266  0.60738906  0.43347091    -0.14510
C1032       C  0.70067559  0.59912469  0.39922283    -0.14510
C1033       C  0.68944200  0.58083561  0.36429895     0.07640
C1034       C  0.66352829  0.57258073  0.36437961    -0.14510
H1035       H  0.62953083  0.57464186  0.39859424     0.11620
H1036       H  0.69626024  0.62149768  0.45960442     0.11620
H1037       H  0.72054233  0.60609426  0.40050607     0.11620
H1038       H  0.65432877  0.55825501  0.33808152     0.11620
C1039       C  0.84662503  0.55670173  0.10213954    -0.14510
C1040       C  0.84083525  0.60158228  0.07920363     0.07640
C1041       C  0.82207405  0.63656259  0.09205118    -0.14510
C1042       C  0.80859593  0.62597812  0.12646756    -0.14510
C1043       C  0.81382695  0.58056146  0.14912539     0.07640
C1044       C  0.83326533  0.54637697  0.13708642    -0.14510
H1045       H  0.86107313  0.52926677  0.09261000     0.11620
H1046       H  0.81749015  0.67154265  0.07486083     0.11620
H1047       H  0.79361587  0.65271422  0.13497936     0.11620
H1048       H  0.83728382  0.51050295  0.15361366     0.11620
C1049       C  0.81377126  0.61029261  0.43148940    -0.14510
C1050       C  0.83970654  0.60525905  0.43194839     0.07640
C1051       C  0.85215814  0.59188138  0.39644205    -0.14510
C1052       C  0.83865055  0.58171240  0.36163885    -0.14510
C1053       C  0.81253036  0.58551328  0.36182469     0.07640
C1054       C  0.80047314  0.60089331  0.39713305    -0.14510
H1055       H  0.80363159  0.62195237  0.45786153     0.11620
H1056       H  0.87222104  0.58800432  0.39588993     0.11620
H1057       H  0.84849139  0.56975436  0.33507786     0.11620
H1058       H  0.78040661  0.60453079  0.39868346     0.11620
C1059       C  0.84763622  0.36602700  0.10268688    -0.14510
C1060       C  0.84385106  0.37216934  0.06196109     0.07640
C1061       C  0.82083653  0.39256905  0.04904146    -0.14510
C1062       C  0.80288956  0.40963163  0.07562324    -0.14510
C1063       C  0.80671758  0.40432360  0.11598211     0.07640
C1064       C  0.82897672  0.38158204  0.12962134    -0.14510
H1065       H  0.86493180  0.34984875  0.11362926     0.11620
H1066       H  0.81632660  0.39495531  0.01804897     0.11620
H1067       H  0.78561311  0.42587958  0.06452678     0.11620
H1068       H  0.83208715  0.37702401  0.16090703     0.11620
C1069       C  0.85136555  0.42903841  0.41869117    -0.14510
C1070       C  0.85586426  0.37432783  0.42494503     0.07640
C1071       C  0.84071226  0.33677067  0.40570436    -0.14510
C1072       C  0.81970566  0.35351452  0.38501439    -0.14510
C1073       C  0.81329667  0.40800167  0.38376258     0.07640
C1074       C  0.82989589  0.44560310  0.39936769    -0.14510
H1075       H  0.86293932  0.45898807  0.43264998     0.11620
H1076       H  0.84356867  0.29435677  0.40998300     0.11620
H1077       H  0.80763656  0.32354165  0.37222674     0.11620
H1078       H  0.82577619  0.48773094  0.39806300     0.11620
C1079       C  0.66537339  0.33055711  0.10172355    -0.14510
C1080       C  0.65097427  0.36749578  0.08084943     0.07640
C1081       C  0.65451816  0.42239060  0.08756719    -0.14510
C1082       C  0.67442497  0.44004807  0.11012506    -0.14510
C1083       C  0.69054977  0.40319162  0.12762552     0.07640
C1084       C  0.68497526  0.34835397  0.12524072    -0.14510
H1085       H  0.66305976  0.28804551  0.09688258     0.11620
H1086       H  0.64347254  0.45161388  0.07196928     0.11620
H1087       H  0.67791486  0.48246132  0.11217654     0.11620
H1088       H  0.69677002  0.31905487  0.13926093     0.11620
C1089       C  0.65833368  0.42902344  0.43507416    -0.14510
C1090       C  0.65239989  0.37445861  0.43777820     0.07640
C1091       C  0.66483774  0.33779408  0.41318443    -0.14510
C1092       C  0.68457137  0.35470528  0.38936593    -0.14510
C1093       C  0.69234152  0.40836177  0.39024158     0.07640
C1094       C  0.67843777  0.44562257  0.41215422    -0.14510
H1095       H  0.64878986  0.45822200  0.45340007     0.11620
H1096       H  0.66078295  0.29548083  0.41486444     0.11620
H1097       H  0.69464620  0.32518654  0.37211699     0.11620
H1098       H  0.68368446  0.48726389  0.41285551     0.11620
C1099       C  0.59536484  0.14402172  0.34949086    -0.14510
C1100       C  0.59199666  0.13795671  0.30860972     0.07640
C1101       C  0.56948187  0.11533031  0.29518796    -0.14510
C1102       C  0.55166411  0.09655472  0.32137851    -0.14510
C1103       C  0.55502946  0.10243233  0.36183641     0.07640
C1104       C  0.57680902  0.12691748  0.37596014    -0.14510
H1105       H  0.61224348  0.16156778  0.36097272     0.11620
H1106       H  0.56513574  0.11279868  0.26414274     0.11620
H1107       H  0.53474797  0.07899548  0.30990995     0.11620
H1108       H  0.57960259  0.13191817  0.40735538     0.11620
C1109       C  0.58279790  0.07018379  0.14238465    -0.14510
C1110       C  0.56611494  0.10783473  0.12725599     0.07640
C1111       C  0.57224440  0.16235115  0.12955488    -0.14510
C1112       C  0.59281640  0.17895880  0.15146025    -0.14510
C1113       C  0.60766031  0.14116162  0.17086047     0.07640
C1114       C  0.60380720  0.08663030  0.16295781    -0.14510
H1115       H  0.57886347  0.02806073  0.14027042     0.11620
H1116       H  0.56010530  0.19232424  0.11711501     0.11620
H1117       H  0.59532213  0.22128791  0.15689423     0.11620
H1118       H  0.61520562  0.05661144  0.17702692     0.11620
C1119       C  0.55960904  0.19954704  0.98099845    -0.14510
C1120       C  0.56538433  0.15204705  0.00074201     0.07640
C1121       C  0.58771851  0.14822817  0.52167652    -0.14510
C1122       C  0.60375404  0.19210025  0.52371443    -0.14510
C1123       C  0.59786435  0.23967420  0.50402716     0.07640
C1124       C  0.57586159  0.24279713  0.48223243    -0.14510
H1125       H  0.54242559  0.20326948  0.96473254     0.11620
H1126       H  0.59233668  0.11205923  0.53745218     0.11620
H1127       H  0.62075332  0.18893703  0.54051465     0.11620
H1128       H  0.57101036  0.27918570  0.96692897     0.11620
C1129       C  0.92231034  0.06176454  0.35900862    -0.14510
C1130       C  0.93703624  0.09892912  0.37931614     0.07640
C1131       C  0.92879717  0.15217536  0.38229420    -0.14510
C1132       C  0.90819423  0.16922602  0.36087269    -0.14510
C1133       C  0.89551857  0.13317729  0.33635504     0.07640
C1134       C  0.90126834  0.07846885  0.33868870    -0.14510
H1135       H  0.92790174  0.02040234  0.35671606     0.11620
H1136       H  0.93926915  0.18153143  0.39884829     0.11620
H1137       H  0.90415605  0.21160173  0.35980610     0.11620
H1138       H  0.89158121  0.04975188  0.32036336     0.11620
C1139       C  0.95617190  0.12048926  0.18590287    -0.14510
C1140       C  0.95016363  0.11596068  0.14613811     0.07640
C1141       C  0.92692563  0.13396578  0.13275662    -0.14510
C1142       C  0.90915566  0.15315250  0.15980363    -0.14510
C1143       C  0.91488990  0.15542607  0.20008085     0.07640
C1144       C  0.93896306  0.14121224  0.21242548    -0.14510
H1145       H  0.97429370  0.10824456  0.19639945     0.11620
H1146       H  0.92230306  0.13140826  0.10176867     0.11620
H1147       H  0.89083180  0.16424992  0.14958742     0.11620
H1148       H  0.94425102  0.14450864  0.24310821     0.11620
C1149       C  0.91482079  0.14836368  0.48470181    -0.14510
C1150       C  0.93711844  0.15268363  0.50583153     0.07640
C1151       C  0.94237355  0.20022728  0.52622044    -0.14510
C1152       C  0.92569288  0.24290213  0.52544067    -0.14510
C1153       C  0.90386599  0.23942640  0.50321337     0.07640
C1154       C  0.89847363  0.19188324  0.48283259    -0.14510
H1155       H  0.91053188  0.11214937  0.46851332     0.11620
H1156       H  0.95945995  0.20443633  0.54268036     0.11620
H1157       H  0.93019720  0.27937311  0.54116282     0.11620
H1158       H  0.88171124  0.18860558  0.46544434     0.11620
C1159       C  0.91288029  0.93348480  0.40204108    -0.14510
C1160       C  0.93850105  0.92181957  0.40293143     0.07640
C1161       C  0.94958002  0.89833732  0.36931046    -0.14510
C1162       C  0.93606221  0.88992159  0.33502272    -0.14510
C1163       C  0.91087537  0.90376949  0.33325253     0.07640
C1164       C  0.89909072  0.92406858  0.36743613    -0.14510
H1165       H  0.90381852  0.95177612  0.42731232     0.11620
H1166       H  0.96917494  0.88819952  0.36883088     0.11620
H1167       H  0.94544154  0.87297481  0.30949751     0.11620
H1168       H  0.87955615  0.93460527  0.36682228     0.11620
C1169       C  0.90064838  0.92971907  0.15093291    -0.14510
C1170       C  0.91254218  0.91490583  0.18623656     0.07640
C1171       C  0.93857727  0.91078480  0.18609057    -0.14510
C1172       C  0.95239051  0.92157108  0.15218743    -0.14510
C1173       C  0.94077044  0.93689652  0.11692544     0.07640
C1174       C  0.91465946  0.94095423  0.11661131    -0.14510
H1175       H  0.88058524  0.93322998  0.15001116     0.11620
H1176       H  0.94842061  0.89816723  0.21219454     0.11620
H1177       H  0.97244238  0.91796902  0.15380816     0.11620
H1178       H  0.90513983  0.95284120  0.09002774     0.11620
C1179       C  0.94251019  0.74451113  0.47695926    -0.14510
C1180       C  0.94415174  0.78220358  0.00766316     0.07640
C1181       C  0.92605650  0.78198368  0.03765938    -0.14510
C1182       C  0.90666467  0.74480157  0.03691898    -0.14510
C1183       C  0.90521772  0.70622276  0.00659957     0.07640
C1184       C  0.92341191  0.70668462  0.97661707    -0.14510
H1185       H  0.95630477  0.74360838  0.45353713     0.11620
H1186       H  0.92667965  0.81110016  0.06137170     0.11620
H1187       H  0.89263203  0.74686925  0.05990561     0.11620
H1188       H  0.92314055  0.67731294  0.95310249     0.11620
C1189       C  0.55869868  0.88314895  0.37513999    -0.14510
C1190       C  0.56330406  0.92953248  0.39738407     0.07640
C1191       C  0.58202211  0.96491442  0.38473177    -0.14510
C1192       C  0.59528446  0.95478045  0.34962253    -0.14510
C1193       C  0.59023822  0.90875092  0.32719871     0.07640
C1194       C  0.57219694  0.87262030  0.34061395    -0.14510
H1195       H  0.54425240  0.85551092  0.38413312     0.11620
H1196       H  0.58554073  0.00149080  0.40094891     0.11620
H1197       H  0.60916156  0.98311853  0.33965357     0.11620
H1198       H  0.56816882  0.83680082  0.32378420     0.11620
C1199       C  0.55143803  0.91242170  0.14507327    -0.14510
C1200       C  0.56343023  0.92743199  0.10975491     0.07640
C1201       C  0.58954309  0.93144892  0.10950948    -0.14510
C1202       C  0.60308230  0.92222301  0.14437552    -0.14510
C1203       C  0.59065977  0.90936773  0.17993357     0.07640
C1204       C  0.56475047  0.90381449  0.17941563    -0.14510
H1205       H  0.53138820  0.90845171  0.14666204     0.11620
H1206       H  0.59933298  0.94312761  0.08292165     0.11620
H1207       H  0.62312906  0.92636182  0.14379025     0.11620
H1208       H  0.55461797  0.89221017  0.20571996     0.11600
C1209       C  0.57721951  0.70297060  0.03747911    -0.14510
C1210       C  0.59520847  0.70111592  0.00713618     0.07640
C1211       C  0.59408238  0.73967757  0.97706328    -0.14510
C1212       C  0.57524733  0.77814085  0.97688246    -0.14510
C1213       C  0.55739185  0.77984566  0.00723226     0.07640
C1214       C  0.55868635  0.74223299  0.03772960    -0.14510
H1215       H  0.57725328  0.67371250  0.06087073     0.11620
H1216       H  0.60798478  0.74088716  0.95386617     0.11620
H1217       H  0.57486155  0.80708570  0.45323831     0.11620
H1218       H  0.54501470  0.74241459  0.06133686     0.11620
O1219       O  0.96915078  0.03570998  0.88991689    -0.89340
C1220       C  0.53719262  0.81985317  0.50648728     1.10700
O1221       O  0.50079853  0.02844681  0.96389061    -1.37150
O1222       O  0.97488416  0.83348657  0.97550245    -0.90830
O1223       O  0.97189657  0.11541627  0.91934719    -0.91490
O1224       O  0.94896647  0.06112426  0.00549783    -0.80320
O1225       O  0.97741985  0.93505009  0.93094556    -1.02400
C1226       C  0.95679825  0.94968189  0.58216356     1.20740
O1227       O  0.00195012  0.03154852  0.54509261    -1.37300
Mn1228     Mn  0.52857084  0.99710500  0.50402496     1.82060
O1229       O  0.94887779  0.96847113  0.55031286    -0.79390
O1230       O  0.97151721  0.84078811  0.54114155    -0.88790
C1231       C  0.54747125  0.94286313  0.57588448     1.11830
C1232       C  0.96472150  0.82129676  0.50821261     1.06550
O1233       O  0.55381525  0.06049972  0.50292697    -0.80330
O1234       O  0.50130433  0.93364786  0.50579873    -1.34020
O1235       O  0.52501782  0.11861592  0.50169773    -0.99540
C1236       C  0.96876950  0.09394710  0.61912997     1.05260
Mn1237     Mn  0.00077947  0.89017382  0.55891412     1.48570
O1238       O  0.97518696  0.12212716  0.58998760    -0.88740
Mn1239     Mn  0.50082462  0.11336700  0.95958358     1.49560
O1240       O  0.52534097  0.03888587  0.88167318    -0.92620
C1241       C  0.95506243  0.93895911  0.93567780     1.18460
C1242       C  0.53523482  0.08408145  0.88846994     1.10510
Mn1243     Mn  0.97406846  0.99728167  0.00615906     1.80970
O1244       O  0.52511265  0.94005890  0.58010125    -0.97770
Mn1245     Mn  0.99912780  0.98906639  0.90861870     1.49260
C1246       C  0.96084765  0.08236070  0.89711244     1.07030
Mn1247     Mn  0.50398093  0.99627898  0.60116521     1.49930
C1248       C  0.54239916  0.09008771  0.60967967     1.09940
O1249       O  0.97776153  0.11945993  0.00431942    -1.03570
O1250       O  0.52724651  0.83428911  0.53901723    -0.93230
C1251       C  0.95553783  0.10912238  0.00535605     1.21220
O1252       O  0.97917170  0.94366718  0.58484559    -1.03960
O1253       O  0.53044532  0.83774402  0.97321897    -0.91360
O1254       O  0.53423757  0.04373332  0.61799039    -0.90960
O1255       O  0.52836827  0.11480909  0.91622537    -0.90990
Mn1256     Mn  0.50165695  0.88658506  0.95389534     1.47860
O1257       O  0.55507221  0.96489178  0.54484840    -0.79460
C1258       C  0.54720250  0.10836637  0.50137912     1.14270
O1259       O  0.94776184  0.96293833  0.96627822    -0.78190
O1260       O  0.55343957  0.96611002  0.96117080    -0.77810
Mn1261     Mn  0.00220274  0.11676809  0.54648591     1.51060
O1262       O  0.97833743  0.04884469  0.62710383    -0.90160
O1263       O  0.52390284  0.93678266  0.92603963    -0.97690
O1264       O  0.53128420  0.12173553  0.58661183    -0.92700
C1265       C  0.54617917  0.94396910  0.93005719     1.12060
C1266       C  0.61448707  0.28633437  0.00611348     0.01960
C1267       C  0.62263326  0.31096621  0.97112390    -0.14190
C1268       C  0.63873614  0.35489288  0.97275315    -0.00540
C1269       C  0.64583464  0.37488385  0.00945748    -0.12710
C1270       C  0.63837173  0.35032662  0.54446748     0.01960
C1271       C  0.62277712  0.30554238  0.54281504    -0.12130
H1272       H  0.61727210  0.29463828  0.94277732     0.07550
H1273       H  0.65949545  0.40668748  0.01076584     0.05080
H1274       H  0.61727314  0.28564300  0.56980787     0.04930
C1275       C  0.88761905  0.28672003  0.00020459     0.01960
C1276       C  0.88247004  0.30920687  0.96312671    -0.14190
C1277       C  0.86930725  0.35759638  0.96088628    -0.00540
C1278       C  0.86256819  0.38356090  0.99590146    -0.12710
C1279       C  0.86263045  0.35616887  0.53169243     0.01960
C1280       C  0.87667090  0.30901191  0.53440413    -0.12130
H1281       H  0.88840221  0.28902098  0.93633289     0.07550
H1282       H  0.85299151  0.42156363  0.99453352     0.05080
H1283       H  0.87800333  0.28809009  0.56218788     0.04930
C1284       C  0.88465875  0.66622501  0.50602775     0.01960
C1285       C  0.87392296  0.64992988  0.47006658    -0.14190
C1286       C  0.85318110  0.61578117  0.46952076    -0.00540
C1287       C  0.84342046  0.59715387  0.50565665    -0.12710
C1288       C  0.85391771  0.61289400  0.54164964     0.01960
C1289       C  0.87464307  0.64666738  0.54161747    -0.12130
H1290       H  0.88061740  0.66654436  0.94255566     0.07550
H1291       H  0.82700000  0.57204388  0.50594784     0.05080
H1292       H  0.88243743  0.65884259  0.56961297     0.04930
C1293       C  0.61554497  0.66045449  0.50743381     0.01960
C1294       C  0.62629253  0.64453430  0.54338664    -0.14190
C1295       C  0.64718592  0.61090124  0.54385104    -0.00540
C1296       C  0.65706467  0.59235027  0.50775387    -0.12710
C1297       C  0.64700662  0.60845141  0.97150393     0.01960
C1298       C  0.62577897  0.64104709  0.97168562    -0.12130
H1299       H  0.61958066  0.66126733  0.57096692     0.07550
H1300       H  0.67344916  0.56709072  0.50780791     0.05080
H1301       H  0.61806638  0.65346252  0.94379245     0.04930
O1302       O  0.72401603  0.39044415  0.67101036    -0.89340
C1303       C  0.78985837  0.42558480  0.86520804     1.10700
O1304       O  0.75118144  0.48104151  0.71546470    -1.37150
O1305       O  0.72336050  0.39419064  0.84216087    -0.90830
O1306       O  0.72094994  0.46909050  0.64059844    -0.91490
O1307       O  0.69785387  0.54608870  0.71510917    -0.80320
O1308       O  0.72777289  0.39153096  0.75670443    -1.02400
C1309       C  0.70582953  0.56705111  0.83012114     1.20740
O1310       O  0.75114866  0.57795561  0.75556435    -1.37300
Mn1311     Mn  0.77846237  0.51441818  0.75546809     1.82060
O1312       O  0.69828867  0.54561025  0.79883919    -0.79390
O1313       O  0.72426364  0.47075666  0.87610036    -0.88790
C1314       C  0.79670695  0.56993584  0.82771954     1.11830
C1315       C  0.71473610  0.42543805  0.86832983     1.06550
O1316       O  0.80366171  0.54429179  0.71275634    -0.80330
O1317       O  0.75136188  0.48188028  0.79665578    -1.34020
O1318       O  0.77426369  0.57185024  0.67673200    -0.99540
C1319       C  0.71459844  0.69049211  0.75573449     1.05260
Mn1320     Mn  0.75199572  0.51989007  0.85220115     1.48570
O1321       O  0.72347854  0.67459310  0.72288156    -0.88740
Mn1322     Mn  0.75011154  0.51779730  0.65959861     1.49560
O1323       O  0.78030873  0.39311603  0.67098006    -0.92620
C1324       C  0.70554898  0.40218342  0.75666896     1.18460
C1325       C  0.78701066  0.42288674  0.64271480     1.10510
Mn1326     Mn  0.72395064  0.51421253  0.75630673     1.80970
O1327       O  0.77432669  0.57389473  0.83134372    -0.97770
Mn1328     Mn  0.75183700  0.39576673  0.71304791     1.49260
C1329       C  0.71323663  0.42202672  0.64754709     1.07030
Mn1330     Mn  0.75083836  0.62391887  0.80792844     1.49930
C1331       C  0.78705492  0.69176703  0.75456767     1.09940
O1332       O  0.72777515  0.57208890  0.68000046    -1.03570
O1333       O  0.78137377  0.47207594  0.87270952    -0.93230
C1334       C  0.70539586  0.56798373  0.68401840     1.21220
O1335       O  0.72819163  0.57279351  0.83345928    -1.03960
O1336       O  0.77944369  0.39350745  0.84157231    -0.91360
O1337       O  0.77807159  0.67695608  0.78756626    -0.90960
O1338       O  0.77684409  0.46740751  0.63500006    -0.90990
Mn1339     Mn  0.75137042  0.39674109  0.80008696     1.47860
O1340       O  0.80449157  0.54764943  0.79671736    -0.79460
C1341       C  0.79655112  0.56569564  0.68139569     1.14270
O1342       O  0.69904240  0.45023881  0.75607411    -0.78190
O1343       O  0.80384926  0.45103656  0.75542621    -0.77810
Mn1344     Mn  0.75127034  0.62255050  0.70277815     1.51060
O1345       O  0.72269692  0.67495362  0.78889826    -0.90160
O1346       O  0.77513137  0.39289235  0.75669522    -0.97690
O1347       O  0.77941043  0.67418489  0.72155402    -0.92700
C1348       C  0.79733099  0.40308974  0.75681290     1.12060
C1349       C  0.63685971  0.22616732  0.75052518     0.01960
C1350       C  0.63276436  0.20466691  0.71271073    -0.14190
C1351       C  0.61947522  0.15688728  0.70843405    -0.00540
C1352       C  0.61124528  0.13037099  0.74224206    -0.12710
C1353       C  0.61077242  0.15617880  0.77889058     0.01960
C1354       C  0.62501145  0.20298993  0.78354592    -0.12130
H1355       H  0.63964156  0.22521095  0.68677710     0.07550
H1356       H  0.60166730  0.09259514  0.73907445     0.05080
H1357       H  0.62588897  0.22295645  0.81188703     0.04930
C1358       C  0.86611761  0.84927969  0.75672780     0.01960
C1359       C  0.87703774  0.86928493  0.72177832    -0.14190
C1360       C  0.89843307  0.90153965  0.72310027    -0.00540
C1361       C  0.90813354  0.91574350  0.76018890    -0.12710
C1362       C  0.89756655  0.89633771  0.79534036     0.01960
C1363       C  0.87650852  0.86359309  0.79337149    -0.12130
H1364       H  0.86954903  0.85798479  0.69340738     0.07550
H1365       H  0.92461023  0.94056817  0.76181129     0.05080
H1366       H  0.86933718  0.84640085  0.82038826     0.04930
C1367       C  0.63484695  0.84612420  0.75345842     0.01960
C1368       C  0.62504857  0.86526093  0.71770070    -0.14190
C1369       C  0.60405545  0.89872714  0.71749234    -0.00540
C1370       C  0.59380412  0.91585211  0.75384961    -0.12710
C1371       C  0.60347902  0.89763599  0.78965942     0.01960
C1372       C  0.62373325  0.86253639  0.78924911    -0.12130
H1373       H  0.63300784  0.85226759  0.68987691     0.07550
H1374       H  0.57751804  0.94140210  0.75435044     0.05080
H1375       H  0.63004706  0.84630293  0.81698228     0.04930
C1376       C  0.86658641  0.22769531  0.76304976     0.01960
C1377       C  0.88050679  0.21273622  0.72935936    -0.14190
C1378       C  0.89594460  0.16758859  0.73065681    -0.00540
C1379       C  0.89606380  0.13625647  0.76454353    -0.12710
C1380       C  0.88487165  0.15394368  0.79944190     0.01960
C1381       C  0.86959195  0.19926655  0.79847967    -0.12130
H1382       H  0.87976628  0.23663082  0.70284566     0.07550
H1383       H  0.90791370  0.10121432  0.76506088     0.05080
H1384       H  0.86089739  0.21360124  0.82545086     0.04930
C1385       C  0.67703045  0.73005891  0.72412435    -0.14510
C1386       C  0.69407689  0.72955678  0.75527234     0.07640
C1387       C  0.69169970  0.76746383  0.78563352    -0.14510
C1388       C  0.67286736  0.80586179  0.78457127    -0.14510
C1389       C  0.65554237  0.80639013  0.75362127     0.07640
C1390       C  0.65779197  0.76763924  0.72353658    -0.14510
H1391       H  0.67834322  0.70079843  0.70055256     0.11620
H1392       H  0.70479206  0.76821217  0.80976834     0.11620
H1393       H  0.67209720  0.83550369  0.80787658     0.11620
H1394       H  0.64448213  0.76560397  0.69979162     0.11620
C1395       C  0.80852841  0.76972422  0.78536288    -0.14510
C1396       C  0.80711233  0.73206315  0.75468486     0.07640
C1397       C  0.82476827  0.73381457  0.72404064    -0.14510
C1398       C  0.84378350  0.77195951  0.72448928    -0.14510
C1399       C  0.84523788  0.81000594  0.75515934     0.07640
C1400       C  0.82715962  0.80860227  0.78536233    -0.14510
H1401       H  0.79494160  0.76968397  0.80909672     0.11620
H1402       H  0.82418411  0.70494390  0.70016440     0.11620
H1403       H  0.85764159  0.77069460  0.70121756     0.11620
H1404       H  0.82730502  0.83770992  0.80905602     0.11620
C1405       C  0.66492591  0.36333200  0.73543623    -0.14510
C1406       C  0.68694803  0.35899944  0.75721453     0.07640
C1407       C  0.69154933  0.31214053  0.77856639    -0.14510
C1408       C  0.67450224  0.27005838  0.77796710    -0.14510
C1409       C  0.65298305  0.27349124  0.75499793     0.07640
C1410       C  0.64823259  0.32048677  0.73383524    -0.14510
H1411       H  0.66112868  0.39898464  0.71851308     0.11620
H1412       H  0.70842298  0.30797157  0.79554866     0.11620
H1413       H  0.67858349  0.23393152  0.79415857     0.11620
H1414       H  0.63177441  0.32367655  0.71574182     0.11620
C1415       C  0.80825959  0.30987452  0.77453755    -0.14510
C1416       C  0.81562801  0.35943292  0.75916625     0.07640
C1417       C  0.84020740  0.36611420  0.74577927    -0.14510
C1418       C  0.85691661  0.32321022  0.74668772    -0.14510
C1419       C  0.84939247  0.27363501  0.76195297     0.07640
C1420       C  0.82503968  0.26758924  0.77626524    -0.14510
H1421       H  0.78947165  0.30382138  0.78537850     0.11620
H1422       H  0.84629867  0.40402570  0.73386322     0.11620
H1423       H  0.87572400  0.32878678  0.73581538     0.11620
H1424       H  0.81885625  0.22968954  0.78810125     0.11620
C1425       C  0.70064320  0.59978890  0.61515102    -0.14510
C1426       C  0.68913470  0.58301255  0.65040225     0.07640
C1427       C  0.66308194  0.57722258  0.65102427    -0.14510
C1428       C  0.64910898  0.58680385  0.61666828    -0.14510
C1429       C  0.66104508  0.60150621  0.58115628     0.07640
C1430       C  0.68689475  0.60860516  0.58120720    -0.14510
H1431       H  0.72062273  0.60497610  0.61332459     0.11620
H1432       H  0.65366011  0.56418185  0.67759268     0.11620
H1433       H  0.62912875  0.58138796  0.61752842     0.11620
H1434       H  0.69661037  0.62127848  0.55477878     0.11620
C1435       C  0.64940170  0.58166852  0.89900123    -0.14510
C1436       C  0.66106188  0.59821851  0.93413857     0.07640
C1437       C  0.68678144  0.60740024  0.93347164    -0.14510
C1438       C  0.70067478  0.59913551  0.89922401    -0.14510
C1439       C  0.68944192  0.58084201  0.86430082     0.07640
C1440       C  0.66352844  0.57258354  0.86438149    -0.14510
H1441       H  0.62953080  0.57464159  0.89859580     0.11620
H1442       H  0.69625844  0.62151194  0.95960478     0.11620
H1443       H  0.72054130  0.60610809  0.90050710     0.11620
H1444       H  0.65432947  0.55825447  0.83808389     0.11620
C1445       C  0.84662711  0.55670401  0.60214407    -0.14510
C1446       C  0.84083470  0.60157649  0.57920133     0.07640
C1447       C  0.82207028  0.63655322  0.59204222    -0.14510
C1448       C  0.80859193  0.62597314  0.62645913    -0.14510
C1449       C  0.81382559  0.58056415  0.64912377     0.07640
C1450       C  0.83326685  0.54638325  0.63709105    -0.14510
H1451       H  0.86107773  0.52927192  0.59261973     0.11620
H1452       H  0.81748440  0.67152735  0.57484666     0.11620
H1453       H  0.79360978  0.65270657  0.63496616     0.11620
H1454       H  0.83728749  0.51051485  0.65362358     0.11620
C1455       C  0.81377033  0.61029924  0.93149182    -0.14510
C1456       C  0.83970577  0.60527024  0.93195047     0.07640
C1457       C  0.85215786  0.59189788  0.89644344    -0.14510
C1458       C  0.83865065  0.58172937  0.86163980    -0.14510
C1459       C  0.81253035  0.58552599  0.86182585     0.07640
C1460       C  0.80047258  0.60090096  0.89713500    -0.14510
H1461       H  0.80363025  0.62195494  0.95786454     0.11620
H1462       H  0.87222092  0.58802458  0.89589106     0.11620
H1463       H  0.84849190  0.56977526  0.83507824     0.11620
H1464       H  0.78040592  0.60453485  0.89868568     0.11620
C1465       C  0.84762924  0.36601128  0.60268401    -0.14510
C1466       C  0.84384540  0.37216460  0.56195875     0.07640
C1467       C  0.82083421  0.39258380  0.54904092    -0.14510
C1468       C  0.80288927  0.40965122  0.57562421    -0.14510
C1469       C  0.80671560  0.40432917  0.61598247     0.07640
C1470       C  0.82897150  0.38157117  0.62961965    -0.14510
H1471       H  0.86492217  0.34981870  0.61362529     0.11620
H1472       H  0.81632437  0.39497902  0.51804887     0.11620
H1473       H  0.78561508  0.42591194  0.56452903     0.11620
H1474       H  0.83208059  0.37700225  0.66090480     0.11620
C1475       C  0.85136915  0.42906968  0.91869988    -0.14510
C1476       C  0.85587271  0.37435991  0.92494921     0.07640
C1477       C  0.84072452  0.33679978  0.90570402    -0.14510
C1478       C  0.81971709  0.35353852  0.88501337    -0.14510
C1479       C  0.81330327  0.40802336  0.88376551     0.07640
C1480       C  0.82989865  0.44562874  0.89937596    -0.14510
H1481       H  0.86293971  0.45902192  0.93266244     0.11620
H1482       H  0.84358460  0.29438636  0.90997916     0.11620
H1483       H  0.80765111  0.32356279  0.87222197     0.11620
H1484       H  0.82577518  0.48775509  0.89807537     0.11620
C1485       C  0.66537496  0.33055300  0.60172631    -0.14510
C1486       C  0.65097599  0.36749000  0.58085032     0.07640
C1487       C  0.65451972  0.42238531  0.58756642    -0.14510
C1488       C  0.67442557  0.44004475  0.61012581    -0.14510
C1489       C  0.69055003  0.40319002  0.62762907     0.07640
C1490       C  0.68497604  0.34835190  0.62524479    -0.14510
H1491       H  0.66306153  0.28804113  0.59688648     0.11620
H1492       H  0.64347442  0.45160745  0.57196681     0.11620
H1493       H  0.67791496  0.48245829  0.61217644     0.11620
H1494       H  0.69677057  0.31905397  0.63926679     0.11620
C1495       C  0.65833676  0.42903091  0.93507393    -0.14510
C1496       C  0.65240385  0.37446586  0.93777880     0.07640
C1497       C  0.66484356  0.33780061  0.91318794    -0.14510
C1498       C  0.68457788  0.35471170  0.88937136    -0.14510
C1499       C  0.69234684  0.40836877  0.89024613     0.07640
C1500       C  0.67844163  0.44563001  0.91215598    -0.14510
H1501       H  0.64879142  0.45822989  0.95339749     0.11620
H1502       H  0.66078954  0.29548709  0.91486875     0.11620
H1503       H  0.69465394  0.32519273  0.87212443     0.11620
H1504       H  0.68368755  0.48727180  0.91285635     0.11620
C1505       C  0.59537668  0.14400825  0.84947916    -0.14510
C1506       C  0.59200721  0.13793895  0.80859847     0.07640
C1507       C  0.56949299  0.11530515  0.79518061    -0.14510
C1508       C  0.55167662  0.09653098  0.82137407    -0.14510
C1509       C  0.55504236  0.10241700  0.86183128     0.07640
C1510       C  0.57682210  0.12690548  0.87595128    -0.14510
H1511       H  0.61225487  0.16155902  0.86095872     0.11620
H1512       H  0.56514499  0.11276969  0.76413632     0.11620
H1513       H  0.53476049  0.07896874  0.80990795     0.11620
H1514       H  0.57961633  0.13191207  0.90734585     0.11620
C1515       C  0.58279313  0.07020274  0.64236457    -0.14510
C1516       C  0.56610227  0.10784929  0.62725172     0.07640
C1517       C  0.57222410  0.16236887  0.62956155    -0.14510
C1518       C  0.59279769  0.17898050  0.65146181    -0.14510
C1519       C  0.60765075  0.14118457  0.67084590     0.07640
C1520       C  0.60380346  0.08665401  0.66293318    -0.14510
H1521       H  0.57886469  0.02807802  0.64024070     0.11620
H1522       H  0.56007846  0.19233931  0.61713404     0.11620
H1523       H  0.59529853  0.22130891  0.65690477     0.11620
H1524       H  0.61520843  0.05663657  0.67699071     0.11620
C1525       C  0.55959411  0.19956350  0.48101164    -0.14510
C1526       C  0.56536936  0.15205903  0.50074963     0.07640
C1527       C  0.58773200  0.14822192  0.02167311    -0.14510
C1528       C  0.60376552  0.19209728  0.02371113    -0.14510
C1529       C  0.59787490  0.23966781  0.00401997     0.07640
C1530       C  0.57587431  0.24278351  0.98221964    -0.14510
H1531       H  0.54240974  0.20329052  0.46474871     0.11620
H1532       H  0.59234985  0.11205626  0.03745307     0.11620
H1533       H  0.62076341  0.18893996  0.04051545     0.11620
H1534       H  0.57099821  0.27920201  0.46694478     0.11620
C1535       C  0.92231277  0.06179155  0.85903369    -0.14510
C1536       C  0.93704743  0.09895730  0.87932380     0.07640
C1537       C  0.92881543  0.15220935  0.88229278    -0.14510
C1538       C  0.90820966  0.16926108  0.86087843    -0.14510
C1539       C  0.89552407  0.13320760  0.83637746     0.07640
C1540       C  0.90126796  0.07849740  0.83872189    -0.14510
H1541       H  0.92789885  0.02042557  0.85674856     0.11620
H1542       H  0.93929450  0.18156716  0.89883383     0.11620
H1543       H  0.90417626  0.21163840  0.85980307     0.11620
H1544       H  0.89157334  0.04977714  0.82040938     0.11620
C1545       C  0.95615812  0.12043273  0.68591313    -0.14510
C1546       C  0.95015157  0.11593093  0.64614614     0.07640
C1547       C  0.92691682  0.13395985  0.63276739    -0.14510
C1548       C  0.90914878  0.15314693  0.65981773    -0.14510
C1549       C  0.91488162  0.15539758  0.70009625     0.07640
C1550       C  0.93895181  0.14115672  0.71243923    -0.14510
H1551       H  0.97427761  0.10817044  0.69640856     0.11620
H1552       H  0.92229540  0.13142305  0.60177817     0.11620
H1553       H  0.89082768  0.16426605  0.64960199     0.11620
H1554       H  0.94424049  0.14443798  0.74312242     0.11620
C1555       C  0.91483704  0.14839781  0.98469886    -0.14510
C1556       C  0.93713552  0.15271557  0.00582673     0.07640
C1557       C  0.94239292  0.20026087  0.02621237    -0.14510
C1558       C  0.92571316  0.24293815  0.02543252    -0.14510
C1559       C  0.90388481  0.23946309  0.00320847     0.07640
C1560       C  0.89849086  0.19191923  0.98282968    -0.14510
H1561       H  0.91054621  0.11218266  0.96851272     0.11620
H1562       H  0.95947992  0.20446847  0.04267097     0.11620
H1563       H  0.93021873  0.27940943  0.04115335     0.11620
H1564       H  0.88172740  0.18864172  0.96544398     0.11620
C1565       C  0.91288153  0.93349853  0.90204629    -0.14510
C1566       C  0.93850256  0.92183576  0.90293570     0.07640
C1567       C  0.94958110  0.89835113  0.86931526    -0.14510
C1568       C  0.93606271  0.88993132  0.83502870    -0.14510
C1569       C  0.91087568  0.90377763  0.83325891     0.07640
C1570       C  0.89909141  0.92407879  0.86744225    -0.14510
H1571       H  0.90381998  0.95179105  0.92731727     0.11620
H1572       H  0.96917615  0.88821448  0.86883501     0.11620
H1573       H  0.94544184  0.87298291  0.80950388     0.11620
H1574       H  0.87955670  0.93461431  0.86682882     0.11620
C1575       C  0.90064761  0.92971298  0.65093816    -0.14510
C1576       C  0.91254199  0.91490350  0.68624216     0.07640
C1577       C  0.93857696  0.91077979  0.68609501    -0.14510
C1578       C  0.95238957  0.92155935  0.65218999    -0.14510
C1579       C  0.94076884  0.93688081  0.61692758     0.07640
C1580       C  0.91465800  0.94094145  0.61661485    -0.14510
H1581       H  0.88058453  0.93322591  0.65001736     0.11620
H1582       H  0.94842061  0.89816494  0.71219942     0.11620
H1583       H  0.97244142  0.91795560  0.65380959     0.11620
H1584       H  0.90513793  0.95282608  0.59003110     0.11620
C1585       C  0.94250587  0.74453042  0.97696073    -0.14510
C1586       C  0.94415573  0.78218501  0.50766132     0.07640
C1587       C  0.92606023  0.78196534  0.53765715    -0.14510
C1588       C  0.90666838  0.74478338  0.53691660    -0.14510
C1589       C  0.90522153  0.70620417  0.50659747     0.07640
C1590       C  0.92341608  0.70666531  0.47661545    -0.14510
H1591       H  0.95630030  0.74362771  0.95353837     0.11620
H1592       H  0.92668301  0.81108241  0.56136910     0.11620
H1593       H  0.89263548  0.74685195  0.55990277     0.11620
H1594       H  0.92314472  0.67729348  0.45310097     0.11620
C1595       C  0.55868743  0.88316465  0.87512015    -0.14510
C1596       C  0.56330449  0.92952792  0.89738121     0.07640
C1597       C  0.58203373  0.96489298  0.88474453    -0.14510
C1598       C  0.59529626  0.95476272  0.84963485    -0.14510
C1599       C  0.59023784  0.90875494  0.82719380     0.07640
C1600       C  0.57218469  0.87264068  0.84059256    -0.14510
H1601       H  0.54423279  0.85553950  0.88410119     0.11620
H1602       H  0.58556165  0.00145459  0.90097465     0.11620
H1603       H  0.60918282  0.98308774  0.83967869     0.11620
H1604       H  0.56814748  0.83683731  0.82374972     0.11620
C1605       C  0.55143688  0.91242444  0.64507002    -0.14510
C1606       C  0.56342849  0.92743623  0.60975153     0.07640
C1607       C  0.58954129  0.93145469  0.60950538    -0.14510
C1608       C  0.60308099  0.92222923  0.64437103    -0.14510
C1609       C  0.59065900  0.90937222  0.67992920     0.07640
C1610       C  0.56474979  0.90381715  0.67941183    -0.14510
H1611       H  0.53138713  0.90845311  0.64665939     0.11620
H1612       H  0.59933072  0.94313434  0.58291736     0.11620
H1613       H  0.62312768  0.92636952  0.64378533     0.11620
H1614       H  0.55461768  0.89221145  0.70571620     0.11600
C1615       C  0.57722279  0.70297066  0.53747802    -0.14510
C1616       C  0.59521192  0.70111582  0.50713541     0.07640
C1617       C  0.59408637  0.73967793  0.47706275    -0.14510
C1618       C  0.57525144  0.77814155  0.47688166    -0.14510
C1619       C  0.55739564  0.77984607  0.50723099     0.07640
C1620       C  0.55868983  0.74223327  0.53772828    -0.14510
H1621       H  0.57725613  0.67371219  0.56086939     0.11620
H1622       H  0.60798894  0.74088717  0.45386587     0.11620
H1623       H  0.57485728  0.80708493  0.95323907     0.11620
H1624       H  0.54501790  0.74241454  0.56133512     0.11620
loop_ 
_geom_bond_atom_site_label_1 
_geom_bond_atom_site_label_2 
_geom_bond_distance 
_geom_bond_site_symmetry_2 
_ccdc_geom_bond_type 
O1           C28   1.272       .  A
O1          Mn27   2.093   1_545  S
C2           O32   1.274       .  A
C2          O441   1.271   1_554  A
C2          C401   1.477       .  S
O3          Mn21   2.131       .  S
O3         Mn416   2.176   1_545  S
O3         Mn837   2.171   1_445  S
O3         Mn839   2.117   1_445  S
O4          C420   1.272       .  A
O4         Mn850   2.091       .  S
O5           C28   1.268       .  A
O5         Mn833   2.077       .  S
O6           C33   1.252       .  A
O6          Mn25   2.091   1_545  S
O7          Mn27   1.940       .  S
O7         Mn850   1.948       .  S
O7           C23   1.215       .  S
C8           O11   1.257       .  A
C8          C361   1.492       .  S
C8           O34   1.216       .  S
O9          Mn43   2.133       .  S
O9         Mn841   2.104   1_545  S
O9         Mn822   2.166   1_545  S
O9         Mn431   2.178   1_545  S
Mn10         O39   2.152       .  S
Mn10         O15   2.089   1_565  S
Mn10        O448   2.112   1_554  S
Mn10         O16   2.162       .  S
Mn10        O409   2.176   1_564  S
Mn10        O821   2.166   1_565  S
O11        Mn431   2.140       .  S
O12          C14   1.273       .  A
O12         Mn19   2.091       .  S
C13          O39   1.257       .  A
C13         C388   1.491       .  S
C13          O26   1.211       .  S
C14         O410   1.272   1_554  A
C14         C368   1.477       .  S
O15          C40   1.251       .  A
O16        Mn831   2.109       .  S
O16        Mn444   2.114   1_554  S
O16       Mn1243   2.162   1_455  S
O17        Mn427   1.943   1_554  S
O17        Mn855   1.947       .  S
O17          C40   1.220       .  S
C18          O44   1.271       .  A
C18          O20   1.263       .  A
C18         C328   1.458       .  S
Mn19        O844   2.100       .  S
Mn19        O828   2.109       .  S
Mn19         O34   1.972       .  S
Mn19        O838   1.947       .  S
O20         Mn43   2.067       .  S
Mn21         O37   2.080       .  S
Mn21        O817   2.077   1_455  S
Mn21        O423   1.943       .  S
Mn21        O843   1.958   1_455  S
O22          C24   1.271       .  A
O22        Mn839   2.091   1_445  S
C23          O41   1.257       .  A
C23         C348   1.490       .  S
C24          O37   1.266       .  A
C24         C291   1.467       .  S
Mn25         O41   2.141       .  S
Mn25        O417   2.140       .  S
Mn25        O815   2.171   1_565  S
Mn25        O415   2.178   1_565  S
Mn25       O1234   2.162       .  S
O26         Mn29   1.939       .  S
O26        Mn831   1.947       .  S
Mn27        O834   2.091   1_565  S
Mn27        O815   2.117   1_565  S
Mn27        O857   1.962       .  S
C28         C318   1.478       .  S
Mn29         O36   2.095   1_565  S
Mn29        O856   2.092   1_465  S
Mn29        O821   2.104   1_565  S
Mn29        O846   1.955   1_455  S
C30          O36   1.273       .  A
C30          O46   1.268       .  A
C30         C298   1.478       .  S
O31        Mn833   1.958       .  S
O31        Mn449   1.951       .  S
O31          C33   1.223       .  S
O32        Mn831   2.100       .  S
C33         C338   1.472       .  S
O34        Mn841   1.955       .  S
O35         C408   1.271       .  A
O35         Mn38   2.083       .  S
Mn38        O816   2.091   1_455  S
Mn38        O422   2.114       .  S
Mn38         O45   1.974       .  S
Mn38        O819   1.948   1_455  S
C40         C308   1.467       .  S
O42          C47   1.254       .  A
O42        Mn416   2.112       .  S
Mn43        O858   2.083       .  S
Mn43        O829   1.947       .  S
Mn43        O437   1.951       .  S
O44        Mn841   2.092   1_545  S
O45        Mn839   1.962   1_455  S
O45          C47   1.219       .  S
O46        Mn855   2.083       .  S
C47         C378   1.479       .  S
C48         C311   1.472       .  S
C48          C49   1.407       .  A
C48         C459   1.408       .  A
C49          C50   1.401       .  A
C49          H54   1.084       .  S
C50         C278   1.477       .  S
C50          C51   1.395       .  A
C51         C458   1.396       .  A
C51          H55   1.084       .  S
C52         C268   1.474       .  S
C52          C53   1.401       .  A
C52         C457   1.396       .  A
C53         C454   1.408       .  A
C53          H56   1.084       .  S
C57         C341   1.475       .  S
C57          C58   1.409       .  A
C57         C468   1.410       .  A
C58          C59   1.405       .  A
C58          H63   1.084       .  S
C59         C258   1.483       .  S
C59          C60   1.397       .  A
C60         C467   1.397       .  A
C60          H64   1.083       .  S
C61         C248   1.488       .  S
C61          C62   1.404       .  A
C61         C466   1.397   1_554  A
C62         C463   1.410       .  A
C62          H65   1.083       .  S
C66         C371   1.491       .  S
C66          C67   1.412   1_554  A
C66          C71   1.408       .  A
C67          C68   1.405       .  A
C67         H478   1.083       .  S
C68         C644   1.493       .  S
C68          C69   1.411   1_556  A
C69          C70   1.403       .  A
C69          H73   1.084       .  S
C70         C228   1.479       .  S
C70          C71   1.399       .  A
C71          H74   1.083       .  S
H72         C473   1.083       .  S
C75         C398   1.493       .  S
C75          C76   1.412       .  A
C75         C486   1.412   1_554  A
C76          C77   1.403       .  A
C76          H81   1.083       .  S
C77         C211   1.492       .  S
C77          C78   1.408       .  A
C78         C485   1.407   1_554  A
C78          H82   1.084       .  S
C79         C218   1.492       .  S
C79          C80   1.402       .  A
C79         C484   1.407       .  A
C80         C481   1.412       .  A
C80          H83   1.082       .  S
O84         C111   1.267       .  A
O84        Mn110   2.077       .  S
C85         O118   1.265       .  A
C85         O115   1.273       .  A
C85         C261   1.480       .  S
O86         Mn93   2.170       .  S
O86        Mn104   2.112       .  S
O86        Mn108   2.171       .  S
O86        Mn110   2.136       .  S
O87          C97   1.266       .  A
O87        Mn121   2.069       .  S
O88         C111   1.271       .  A
O88        Mn104   2.090       .  S
O89         C116   1.256       .  A
O89        Mn108   2.143       .  S
O90        Mn121   1.953       .  S
O90        Mn110   1.963       .  S
O90         C106   1.224       .  S
C91          O94   1.257       .  A
C91         C221   1.490       .  S
C91         O117   1.217       .  S
O92        Mn112   2.112       .  S
O92         Mn93   2.164       .  S
O92        Mn126   2.114       .  S
O92        Mn108   2.165       .  S
Mn93        O122   2.150       .  S
Mn93         O98   2.116       .  S
Mn93        O125   2.092       .  S
Mn93         O99   2.173       .  S
O94        Mn108   2.136       .  S
O95          C97   1.272       .  A
O95        Mn102   2.094       .  S
C96         O122   1.257       .  A
C96         C241   1.491       .  S
C96         O109   1.212       .  S
C97         C281   1.475       .  S
O98         C123   1.255       .  A
O99        Mn102   2.107       .  S
O99        Mn121   2.135       .  S
O99        Mn108   2.176       .  S
O100       Mn104   1.964       .  S
O100       Mn126   1.973       .  S
O100        C123   1.219       .  S
C101        O127   1.272       .  A
C101        O103   1.271       .  A
C101        C168   1.474       .  S
Mn102       O115   2.105       .  S
Mn102       O117   1.952       .  S
Mn102       O109   1.941       .  S
O103       Mn126   2.090       .  S
Mn104       O120   2.079       .  S
Mn104       O114   1.935       .  S
O105        C107   1.267       .  A
O105       Mn110   2.086       .  S
C106        O124   1.253       .  A
C106        C188   1.473       .  S
C107        O120   1.270       .  A
C107        C251   1.464       .  S
Mn108       O124   2.088       .  S
O109       Mn112   1.953       .  S
Mn110       O128   1.947       .  S
C111        C271   1.475       .  S
Mn112       O119   2.093       .  S
Mn112       O127   2.087       .  S
Mn112       O117   1.966       .  S
C113        O119   1.273       .  A
C113        O129   1.272       .  A
C113        C178   1.477       .  S
O114       Mn126   1.947       .  S
O114        C116   1.214       .  S
C116        C208   1.491       .  S
O118       Mn121   2.072       .  S
Mn121       O128   1.944       .  S
C123        C231   1.480       .  S
O125        C130   1.251       .  A
Mn126       O129   2.091       .  S
O128        C130   1.220       .  S
C130        C198   1.472       .  S
C131        C191   1.476       .  S
C131        C132   1.407       .  A
C131        C136   1.412       .  A
C132        C133   1.401       .  A
C132        H137   1.084       .  S
C133        C301   1.480       .  S
C133        C134   1.397       .  A
C134        C135   1.398       .  A
C134        H138   1.082       .  S
C135        C288   1.494       .  S
C135        C136   1.409       .  A
C136        H139   1.083       .  S
C140        C181   1.493       .  S
C140        C141   1.413       .  A
C140        C145   1.411       .  A
C141        C142   1.406       .  A
C141        H146   1.082       .  S
C142        C358   1.497       .  S
C142        C143   1.409       .  A
C143        C144   1.406       .  A
C143        H147   1.084       .  S
C144        C351   1.487       .  S
C144        C145   1.400       .  A
C145        H148   1.083       .  S
C149        C171   1.492       .  S
C149        C150   1.411       .  A
C149        C154   1.409       .  A
C150        C151   1.405       .  A
C150        H155   1.082       .  S
C151        C391   1.493       .  S
C151        C152   1.412       .  A
C152        C153   1.403       .  A
C152        H156   1.084       .  S
C153        C381   1.480       .  S
C153        C154   1.398       .  A
C154        H157   1.083       .  S
C158        C201   1.476       .  S
C158        C159   1.411       .  A
C158        C163   1.410       .  A
C159        C160   1.403       .  A
C159        H164   1.083       .  S
C160        C331   1.479       .  S
C160        C161   1.395       .  A
C161        C162   1.394       .  A
C161        H165   1.084       .  S
C162        C321   1.477       .  S
C162        C163   1.401       .  A
C163        H166   1.084       .  S
C167        C168   1.403       .  A
C167        C172   1.398       .  A
C167        H173   1.084       .  S
C168        C169   1.402       .  A
C169        C170   1.396       .  A
C169        H174   1.083       .  S
C170        C171   1.408       .  A
C170        H175   1.082       .  S
C171        C172   1.409       .  A
C172        H176   1.082       .  S
C177        C178   1.403       .  A
C177        C182   1.397       .  A
C177        H183   1.083       .  S
C178        C179   1.404       .  A
C179        C180   1.399       .  A
C179        H184   1.083       .  S
C180        C181   1.410       .  A
C180        H185   1.082       .  S
C181        C182   1.408       .  A
C182        H186   1.082       .  S
C187        C188   1.404       .  A
C187        C192   1.400       .  A
C187        H193   1.083       .  S
C188        C189   1.404       .  A
C189        C190   1.397       .  A
C189        H194   1.083       .  S
C190        C191   1.402       .  A
C190        H195   1.083       .  S
C191        C192   1.405       .  A
C192        H196   1.083       .  S
C197        C198   1.404       .  A
C197        C202   1.392       .  A
C197        H203   1.083       .  S
C198        C199   1.404       .  A
C199        C200   1.400       .  A
C199        H204   1.083       .  S
C200        C201   1.405       .  A
C200        H205   1.083       .  S
C201        C202   1.402       .  A
C202        H206   1.083       .  S
C207        C208   1.408       .  A
C207        C212   1.391       .  A
C207        H213   1.083       .  S
C208        C209   1.408       .  A
C209        C210   1.412       .  A
C209        H214   1.083       .  S
C210        C211   1.411       .  A
C210        H215   1.083       .  S
C211        C212   1.401       .  A
C212        H216   1.083       .  S
C217        C218   1.411       .  A
C217        C222   1.412       .  A
C217        H223   1.083       .  S
C218        C219   1.402       .  A
C219        C220   1.391       .  A
C219        H224   1.083       .  S
C220        C221   1.408       .  A
C220        H225   1.083       .  S
C221        C222   1.408       .  A
C222        H226   1.083       .  S
C227        C228   1.405       .  A
C227        C232   1.407       .  A
C227        H233   1.083       .  S
C228        C229   1.401       .  A
C229        C230   1.396       .  A
C229        H234   1.083       .  S
C230        C231   1.404       .  A
C230        H235   1.083       .  S
C231        C232   1.407       .  A
C232        H236   1.083       .  S
C237        C238   1.400       .  A
C237        C242   1.390       .  A
C237        H243   1.083       .  S
C238        C474   1.493       .  S
C238        C239   1.413       .  A
C239        C240   1.412       .  A
C239        H244   1.083       .  S
C240        C241   1.407       .  A
C240        H245   1.083       .  S
C241        C242   1.410       .  A
C242        H246   1.083       .  S
C247        C248   1.407       .  A
C247        C252   1.406       .  A
C247        H253   1.082       .  S
C248        C249   1.411       .  A
C249        C250   1.382       .  A
C249        H254   1.082       .  S
C250        C251   1.393       .  A
C250        H255   1.084       .  S
C251        C252   1.407       .  A
C252        H256   1.082       .  S
C257        C258   1.408       .  A
C257        C262   1.395       .  A
C257        H263   1.084       .  S
C258        C259   1.405       .  A
C259        C260   1.399       .  A
C259        H264   1.083       .  S
C260        C261   1.407       .  A
C260        H265   1.083       .  S
C261        C262   1.402       .  A
C262        H266   1.078       .  S
C267        C268   1.403       .  A
C267        C272   1.398       .  A
C267        H273   1.083       .  S
C268        C269   1.405       .  A
C269        C270   1.391       .  A
C269        H274   1.084       .  S
C270        C271   1.402       .  A
C270        H275   1.080       .  S
C271        C272   1.407       .  A
C272        H276   1.083       .  S
C277        C278   1.406       .  A
C277        C282   1.392       .  A
C277        H283   1.084       .  S
C278        C279   1.403       .  A
C279        C280   1.396       .  A
C279        H284   1.083       .  S
C280        C281   1.407       .  A
C280        H285   1.083       .  S
C281        C282   1.402       .  A
C282        H286   1.080       .  S
C287        C288   1.407       .  A
C287        C292   1.406       .  A
C287        H293   1.082       .  S
C288        C289   1.414       .  A
C289        C290   1.386       .  A
C289        H294   1.082       .  S
C290        C291   1.393       .  A
C290        H295   1.084       .  S
C291        C292   1.408       .  A
C292        H296   1.083       .  S
C297        C298   1.402       .  A
C297        C302   1.393       .  A
C297        H303   1.077       .  S
C298        C299   1.406       .  A
C299        C300   1.399       .  A
C299        H304   1.083       .  S
C300        C301   1.406       .  A
C300        H305   1.083       .  S
C301        C302   1.405       .  A
C302        H306   1.084       .  S
C307        C308   1.403   1_556  A
C307        C718   1.392       .  A
C307        H313   1.083       .  S
C308        C715   1.403       .  A
C309        C310   1.398       .  A
C309        C714   1.403       .  A
C309        H314   1.083       .  S
C310        C311   1.405       .  A
C310        H315   1.083       .  S
C311        C312   1.401       .  A
C312        C713   1.392       .  A
C312        H722   1.083       .  S
H316        C718   1.083       .  S
C317        C318   1.403       .  A
C317        C322   1.394       .  A
C317        H323   1.080       .  S
C318        C319   1.407       .  A
C319        C320   1.396       .  A
C319        H324   1.083       .  S
C320        C321   1.404       .  A
C320        H325   1.083       .  S
C321        C322   1.406       .  A
C322        H326   1.084       .  S
C327        C328   1.393       .  A
C327        C332   1.385       .  A
C327        H333   1.084       .  S
C328        C329   1.407       .  A
C329        C330   1.403       .  A
C329        H334   1.083       .  S
C330        C331   1.404       .  A
C330        H335   1.083       .  S
C331        C332   1.409       .  A
C332        H336   1.084       .  S
C337        C338   1.405       .  A
C337        C342   1.401       .  A
C337        H343   1.083       .  S
C338        C339   1.403       .  A
C339        C340   1.395       .  A
C339        H344   1.083       .  S
C340        C341   1.401       .  A
C340        H345   1.083       .  S
C341        C342   1.405       .  A
C342        H346   1.083       .  S
C347        C348   1.408       .  A
C347        C352   1.411       .  A
C347        H353   1.083       .  S
C348        C349   1.409       .  A
C349        C350   1.391       .  A
C349        H354   1.083       .  S
C350        C351   1.399       .  A
C350        H355   1.084       .  S
C351        C352   1.410       .  A
C352        H356   1.083       .  S
C357        C358   1.412       .  A
C357        C362   1.412       .  A
C357        H363   1.083       .  S
C358        C359   1.403       .  A
C359        C360   1.392       .  A
C359        H364   1.083       .  S
C360        C361   1.408       .  A
C360        H365   1.083       .  S
C361        C362   1.407       .  A
C362        H366   1.083       .  S
C367        C774   1.405       .  A
C367        C778   1.397       .  A
C367        H373   1.083       .  S
C368        C369   1.403       .  A
C368        C773   1.405   1_554  A
C369        C370   1.398       .  A
C369        H374   1.084       .  S
C370        C371   1.410       .  A
C370        H375   1.082       .  S
C371        C372   1.406   1_554  A
C372        C773   1.397       .  A
C372        H376   1.082       .  S
C377        C378   1.405       .  A
C377        C382   1.397       .  A
C377        H383   1.083       .  S
C378        C379   1.407       .  A
C379        C380   1.406       .  A
C379        H384   1.083   1_565  S
C380        C381   1.405       .  A
C380        H385   1.083       .  S
C381        C382   1.401       .  A
C382        H386   1.083       .  S
C387        C388   1.409       .  A
C387        C392   1.389       .  A
C387        H393   1.083       .  S
C388        C389   1.407       .  A
C389        C390   1.413       .  A
C389        H394   1.083       .  S
C390        C391   1.413       .  A
C390        H395   1.083       .  S
C391        C392   1.400       .  A
C392        H396   1.083       .  S
C397        C398   1.408       .  A
C397        C402   1.399       .  A
C397        H403   1.082       .  S
C398        C399   1.409   1_554  A
C399        C400   1.397       .  A
C399        H404   1.082       .  S
C400        C401   1.403   1_556  A
C400        H811   1.084       .  S
C401        C402   1.404       .  A
C402        H406   1.083       .  S
H405        C806   1.084       .  S
O407        C434   1.272       .  A
O407       Mn433   2.093   1_545  S
C408        O438   1.274       .  A
C408        C807   1.477       .  S
O409       Mn427   2.131       .  S
O409      Mn1243   2.171   1_446  S
O409      Mn1245   2.117   1_445  S
O410      Mn1256   2.091       .  S
O411        C434   1.268       .  A
O411      Mn1239   2.077       .  S
O412        C439   1.252       .  A
O412       Mn431   2.091   1_545  S
O413      Mn1256   1.948       .  S
O413       Mn433   1.940       .  S
O413        C429   1.215       .  S
C414        O417   1.257       .  A
C414        C767   1.492       .  S
C414        O440   1.216       .  S
O415      Mn1247   2.104   1_545  S
O415      Mn1228   2.166   1_545  S
O415       Mn449   2.133       .  S
Mn416       O445   2.152       .  S
Mn416       O421   2.089   1_565  S
Mn416      O1227   2.166   1_565  S
Mn416       O422   2.162       .  S
O418        C420   1.273       .  A
O418       Mn425   2.091       .  S
C419        O445   1.257       .  A
C419        C794   1.491       .  S
C419        O432   1.211       .  S
C420        C774   1.477       .  S
O421        C446   1.251       .  A
O422      Mn1237   2.109       .  S
O422       Mn837   2.162   1_455  S
O423      Mn1261   1.947       .  S
O423        C446   1.220       .  S
C424        O450   1.271       .  A
C424        O426   1.263       .  A
C424        C734   1.458       .  S
Mn425      O1250   2.100       .  S
Mn425      O1234   2.109       .  S
Mn425       O440   1.972       .  S
Mn425      O1244   1.947       .  S
O426       Mn449   2.067       .  S
Mn427      O1223   2.077   1_455  S
Mn427       O443   2.080       .  S
Mn427      O1249   1.958   1_456  S
O428        C430   1.271       .  A
O428      Mn1245   2.091   1_445  S
C429        O447   1.257       .  A
C429        C754   1.490       .  S
C430        O443   1.266       .  A
C430        C697   1.467       .  S
Mn431       O447   2.141   1_554  S
Mn431      O1221   2.171   1_564  S
Mn431       O828   2.162       .  S
O432      Mn1237   1.947       .  S
O432       Mn435   1.939       .  S
Mn433      O1240   2.091   1_565  S
Mn433      O1221   2.117   1_565  S
Mn433      O1263   1.962       .  S
C434        C724   1.478       .  S
Mn435       O442   2.095   1_565  S
Mn435      O1262   2.092   1_465  S
Mn435      O1227   2.104   1_565  S
Mn435      O1252   1.955   1_455  S
C436        O442   1.273       .  A
C436        O452   1.268       .  A
C436        C704   1.478       .  S
O437      Mn1239   1.958   1_554  S
O437        C439   1.223       .  S
O438      Mn1237   2.100       .  S
C439        C744   1.472       .  S
O440      Mn1247   1.955       .  S
O441       Mn444   2.083       .  S
Mn444      O1222   2.091   1_455  S
Mn444      O1225   1.948   1_455  S
Mn444       O451   1.974       .  S
C446        C714   1.467       .  S
O448        C453   1.254       .  A
Mn449      O1264   2.083       .  S
Mn449      O1235   1.947       .  S
O450      Mn1247   2.092   1_545  S
O451      Mn1245   1.962   1_455  S
O451        C453   1.219       .  S
O452      Mn1261   2.083       .  S
C453        C784   1.479       .  S
C454        C717   1.472       .  S
C454        C455   1.407   1_554  A
C455        C456   1.401       .  A
C455        H460   1.084       .  S
C456        C684   1.477       .  S
C456        C457   1.395   1_556  A
C457        H461   1.084       .  S
C458        C674   1.474       .  S
C458        C459   1.401       .  A
C459        H462   1.084       .  S
C463        C747   1.475       .  S
C463        C464   1.409   1_554  A
C464        C465   1.405       .  A
C464        H469   1.084       .  S
C465        C664   1.483       .  S
C465        C466   1.397       .  A
C466        H470   1.083       .  S
C467        C654   1.488       .  S
C467        C468   1.404       .  A
C468        H471   1.083       .  S
C472        C777   1.491       .  S
C472        C473   1.412       .  A
C472        C477   1.409       .  A
C473        C474   1.405       .  A
C474        C475   1.411       .  A
C475        C476   1.403       .  A
C475        H479   1.084       .  S
C476        C634   1.479       .  S
C476        C477   1.399       .  A
C477        H480   1.083       .  S
C481        C804   1.493       .  S
C481        C482   1.412       .  A
C482        C483   1.403       .  A
C482        H487   1.083       .  S
C483        C617   1.492       .  S
C483        C484   1.408       .  A
C484        H488   1.084       .  S
C485        C624   1.492       .  S
C485        C486   1.402       .  A
C486        H489   1.082       .  S
O490        C517   1.267       .  A
O490       Mn516   2.077       .  S
C491        O524   1.265       .  A
C491        O521   1.273       .  A
C491        C667   1.480       .  S
O492       Mn499   2.170       .  S
O492       Mn510   2.112       .  S
O492       Mn514   2.171       .  S
O492       Mn516   2.136       .  S
O493        C503   1.266       .  A
O493       Mn527   2.069       .  S
O494        C517   1.271       .  A
O494       Mn510   2.090       .  S
O495        C522   1.256       .  A
O495       Mn514   2.143       .  S
O496       Mn527   1.953       .  S
O496       Mn516   1.963       .  S
O496        C512   1.224       .  S
C497        O500   1.257       .  A
C497        C627   1.490       .  S
C497        O523   1.217       .  S
O498       Mn518   2.112       .  S
O498       Mn499   2.164       .  S
O498       Mn532   2.114       .  S
O498       Mn514   2.165       .  S
Mn499       O528   2.150       .  S
Mn499       O504   2.116       .  S
Mn499       O531   2.092       .  S
Mn499       O505   2.173       .  S
O500       Mn514   2.136       .  S
O501        C503   1.272       .  A
O501       Mn508   2.094       .  S
C502        O528   1.257       .  A
C502        C647   1.491       .  S
C502        O515   1.212       .  S
C503        C687   1.475       .  S
O504        C529   1.255       .  A
O505       Mn508   2.107       .  S
O505       Mn527   2.135       .  S
O505       Mn514   2.176       .  S
O506       Mn510   1.964       .  S
O506       Mn532   1.973       .  S
O506        C529   1.219       .  S
C507        O533   1.272       .  A
C507        O509   1.271       .  A
C507        C574   1.474       .  S
Mn508       O521   2.105       .  S
Mn508       O523   1.952       .  S
Mn508       O515   1.941       .  S
O509       Mn532   2.090       .  S
Mn510       O526   2.079       .  S
Mn510       O520   1.935       .  S
O511        C513   1.267       .  A
O511       Mn516   2.086       .  S
C512        O530   1.253       .  A
C512        C594   1.473       .  S
C513        O526   1.270       .  A
C513        C657   1.464       .  S
Mn514       O530   2.088       .  S
O515       Mn518   1.953       .  S
Mn516       O534   1.947       .  S
C517        C677   1.475       .  S
Mn518       O525   2.093       .  S
Mn518       O533   2.087       .  S
Mn518       O523   1.966       .  S
C519        O525   1.273       .  A
C519        O535   1.272       .  A
C519        C584   1.477       .  S
O520       Mn532   1.947       .  S
O520        C522   1.214       .  S
C522        C614   1.491       .  S
O524       Mn527   2.072       .  S
Mn527       O534   1.944       .  S
C529        C637   1.480       .  S
O531        C536   1.251       .  A
Mn532       O535   2.091       .  S
O534        C536   1.220       .  S
C536        C604   1.472       .  S
C537        C597   1.476       .  S
C537        C538   1.407       .  A
C537        C542   1.412       .  A
C538        C539   1.401       .  A
C538        H543   1.084       .  S
C539        C707   1.480       .  S
C539        C540   1.397       .  A
C540        C541   1.398       .  A
C540        H544   1.082       .  S
C541        C694   1.494       .  S
C541        C542   1.409       .  A
C542        H545   1.083       .  S
C546        C587   1.493       .  S
C546        C547   1.413       .  A
C546        C551   1.411       .  A
C547        C548   1.406       .  A
C547        H552   1.082       .  S
C548        C764   1.497       .  S
C548        C549   1.409       .  A
C549        C550   1.406       .  A
C549        H553   1.084       .  S
C550        C757   1.487       .  S
C550        C551   1.400       .  A
C551        H554   1.083       .  S
C555        C577   1.492       .  S
C555        C556   1.411       .  A
C555        C560   1.409       .  A
C556        C557   1.405       .  A
C556        H561   1.082       .  S
C557        C797   1.493       .  S
C557        C558   1.412       .  A
C558        C559   1.403       .  A
C558        H562   1.084       .  S
C559        C787   1.480       .  S
C559        C560   1.398       .  A
C560        H563   1.083       .  S
C564        C607   1.476       .  S
C564        C565   1.411       .  A
C564        C569   1.410       .  A
C565        C566   1.403       .  A
C565        H570   1.083       .  S
C566        C737   1.479       .  S
C566        C567   1.395       .  A
C567        C568   1.394       .  A
C567        H571   1.084       .  S
C568        C727   1.477       .  S
C568        C569   1.401       .  A
C569        H572   1.084       .  S
C573        C574   1.403       .  A
C573        C578   1.398       .  A
C573        H579   1.084       .  S
C574        C575   1.402       .  A
C575        C576   1.396       .  A
C575        H580   1.083       .  S
C576        C577   1.408       .  A
C576        H581   1.082       .  S
C577        C578   1.409       .  A
C578        H582   1.082       .  S
C583        C584   1.403       .  A
C583        C588   1.397       .  A
C583        H589   1.083       .  S
C584        C585   1.404       .  A
C585        C586   1.399       .  A
C585        H590   1.083       .  S
C586        C587   1.410       .  A
C586        H591   1.082       .  S
C587        C588   1.408       .  A
C588        H592   1.082       .  S
C593        C594   1.404       .  A
C593        C598   1.400       .  A
C593        H599   1.083       .  S
C594        C595   1.404       .  A
C595        C596   1.397       .  A
C595        H600   1.083       .  S
C596        C597   1.402       .  A
C596        H601   1.083       .  S
C597        C598   1.405       .  A
C598        H602   1.083       .  S
C603        C604   1.404       .  A
C603        C608   1.392       .  A
C603        H609   1.083       .  S
C604        C605   1.404       .  A
C605        C606   1.400       .  A
C605        H610   1.083       .  S
C606        C607   1.405       .  A
C606        H611   1.083       .  S
C607        C608   1.402       .  A
C608        H612   1.083       .  S
C613        C614   1.408       .  A
C613        C618   1.391       .  A
C613        H619   1.083       .  S
C614        C615   1.408       .  A
C615        C616   1.412       .  A
C615        H620   1.083       .  S
C616        C617   1.411       .  A
C616        H621   1.083       .  S
C617        C618   1.401       .  A
C618        H622   1.083       .  S
C623        C624   1.411       .  A
C623        C628   1.412       .  A
C623        H629   1.083       .  S
C624        C625   1.402       .  A
C625        C626   1.391       .  A
C625        H630   1.083       .  S
C626        C627   1.408       .  A
C626        H631   1.083       .  S
C627        C628   1.408       .  A
C628        H632   1.083       .  S
C633        C634   1.405       .  A
C633        C638   1.407       .  A
C633        H639   1.083       .  S
C634        C635   1.401       .  A
C635        C636   1.396       .  A
C635        H640   1.083       .  S
C636        C637   1.404       .  A
C636        H641   1.083       .  S
C637        C638   1.407       .  A
C638        H642   1.083       .  S
C643        C644   1.400       .  A
C643        C648   1.390       .  A
C643        H649   1.083       .  S
C644        C645   1.413       .  A
C645        C646   1.412       .  A
C645        H650   1.083       .  S
C646        C647   1.407       .  A
C646        H651   1.083       .  S
C647        C648   1.410       .  A
C648        H652   1.083       .  S
C653        C654   1.407       .  A
C653        C658   1.406       .  A
C653        H659   1.082       .  S
C654        C655   1.411       .  A
C655        C656   1.382       .  A
C655        H660   1.082       .  S
C656        C657   1.393       .  A
C656        H661   1.084       .  S
C657        C658   1.407       .  A
C658        H662   1.082       .  S
C663        C664   1.408       .  A
C663        C668   1.395       .  A
C663        H669   1.084       .  S
C664        C665   1.405       .  A
C665        C666   1.399       .  A
C665        H670   1.083       .  S
C666        C667   1.407       .  A
C666        H671   1.083       .  S
C667        C668   1.402       .  A
C668        H672   1.078       .  S
C673        C674   1.403       .  A
C673        C678   1.398       .  A
C673        H679   1.083       .  S
C674        C675   1.405       .  A
C675        C676   1.391       .  A
C675        H680   1.084       .  S
C676        C677   1.402       .  A
C676        H681   1.080       .  S
C677        C678   1.407       .  A
C678        H682   1.083       .  S
C683        C684   1.406       .  A
C683        C688   1.392       .  A
C683        H689   1.084       .  S
C684        C685   1.403       .  A
C685        C686   1.396       .  A
C685        H690   1.083       .  S
C686        C687   1.407       .  A
C686        H691   1.083       .  S
C687        C688   1.402       .  A
C688        H692   1.080       .  S
C693        C694   1.407       .  A
C693        C698   1.406       .  A
C693        H699   1.082       .  S
C694        C695   1.414       .  A
C695        C696   1.386       .  A
C695        H700   1.082       .  S
C696        C697   1.393       .  A
C696        H701   1.084       .  S
C697        C698   1.408       .  A
C698        H702   1.083       .  S
C703        C704   1.402       .  A
C703        C708   1.393       .  A
C703        H709   1.077       .  S
C704        C705   1.406       .  A
C705        C706   1.399       .  A
C705        H710   1.083       .  S
C706        C707   1.406       .  A
C706        H711   1.083       .  S
C707        C708   1.405       .  A
C708        H712   1.084       .  S
C713        C714   1.403       .  A
C713        H719   1.083       .  S
C715        C716   1.398       .  A
C715        H720   1.083       .  S
C716        C717   1.405       .  A
C716        H721   1.083       .  S
C717        C718   1.401   1_554  A
C723        C724   1.403       .  A
C723        C728   1.394       .  A
C723        H729   1.080       .  S
C724        C725   1.407       .  A
C725        C726   1.396       .  A
C725        H730   1.083       .  S
C726        C727   1.404       .  A
C726        H731   1.083       .  S
C727        C728   1.406       .  A
C728        H732   1.084       .  S
C733        C734   1.393       .  A
C733        C738   1.385       .  A
C733        H739   1.084       .  S
C734        C735   1.407       .  A
C735        C736   1.403       .  A
C735        H740   1.083       .  S
C736        C737   1.404       .  A
C736        H741   1.083       .  S
C737        C738   1.409       .  A
C738        H742   1.084       .  S
C743        C744   1.405   1_556  A
C743        C748   1.401       .  A
C743        H749   1.083       .  S
C744        C745   1.403       .  A
C745        C746   1.395       .  A
C745        H750   1.083       .  S
C746        C747   1.401       .  A
C746        H751   1.083       .  S
C747        C748   1.405   1_554  A
C748        H752   1.083       .  S
C753        C754   1.408       .  A
C753        C758   1.411       .  A
C753        H759   1.083       .  S
C754        C755   1.409       .  A
C755        C756   1.391       .  A
C755        H760   1.083       .  S
C756        C757   1.399       .  A
C756        H761   1.084       .  S
C757        C758   1.410       .  A
C758        H762   1.083       .  S
C763        C764   1.412       .  A
C763        C768   1.412       .  A
C763        H769   1.083       .  S
C764        C765   1.403       .  A
C765        C766   1.392       .  A
C765        H770   1.083       .  S
C766        C767   1.408       .  A
C766        H771   1.083       .  S
C767        C768   1.407       .  A
C768        H772   1.083       .  S
C773        H779   1.083       .  S
C774        C775   1.403       .  A
C775        C776   1.398       .  A
C775        H780   1.084       .  S
C776        C777   1.410       .  A
C776        H781   1.082       .  S
C777        C778   1.406       .  A
C778        H782   1.082       .  S
C783        C784   1.405       .  A
C783        C788   1.397       .  A
C783        H789   1.083       .  S
C784        C785   1.407       .  A
C785        C786   1.406       .  A
C785        H790   1.083   1_565  S
C786        C787   1.405       .  A
C786        H791   1.083       .  S
C787        C788   1.401       .  A
C788        H792   1.083       .  S
C793        C794   1.409       .  A
C793        C798   1.389       .  A
C793        H799   1.083       .  S
C794        C795   1.407       .  A
C795        C796   1.413       .  A
C795        H800   1.083       .  S
C796        C797   1.413       .  A
C796        H801   1.083       .  S
C797        C798   1.400       .  A
C798        H802   1.083       .  S
C803        C804   1.408       .  A
C803        C808   1.399       .  A
C803        H809   1.082       .  S
C804        C805   1.409       .  A
C805        C806   1.397       .  A
C805        H810   1.082       .  S
C806        C807   1.403       .  A
C807        C808   1.404       .  A
C808        H812   1.083       .  S
O813        C840   1.272       .  A
O813       Mn839   2.093   1_545  S
C814       O1253   1.271   1_554  A
C814        O844   1.274       .  A
C814       C1213   1.477       .  S
O815      Mn1228   2.176   1_545  S
O815       Mn833   2.131       .  S
O816       C1232   1.272       .  A
O817        C840   1.268       .  A
O818        C845   1.252       .  A
O818       Mn837   2.091   1_545  S
O819       Mn839   1.940       .  S
O819        C835   1.215       .  S
C820        O823   1.257       .  A
C820       C1173   1.492       .  S
C820        O846   1.216       .  S
O821       Mn855   2.133       .  S
O821      Mn1243   2.178   1_445  S
Mn822       O851   2.152       .  S
Mn822       O827   2.089   1_565  S
Mn822      O1260   2.112   1_554  S
Mn822      O1221   2.176   1_564  S
Mn822       O828   2.162       .  S
O823      Mn1243   2.140       .  S
O824        C826   1.273       .  A
O824       Mn831   2.091   1_655  S
C825        O851   1.257       .  A
C825       C1200   1.491       .  S
C825        O838   1.211       .  S
C826       O1222   1.272   1_554  A
C826       C1180   1.477       .  S
O827        C852   1.251       .  A
O828      Mn1256   2.114   1_554  S
O829      Mn1239   1.943   1_554  S
O829        C852   1.220       .  S
C830        O856   1.271       .  A
C830        O832   1.263       .  A
C830       C1140   1.458       .  S
Mn831       O846   1.972   1_455  S
O832       Mn855   2.067   1_655  S
Mn833       O849   2.080       .  S
Mn833      O1235   1.943       .  S
O834        C836   1.271       .  A
C835        O853   1.257       .  A
C835       C1160   1.490       .  S
C836        O849   1.266       .  A
C836       C1103   1.467       .  S
Mn837      O1229   2.140       .  S
Mn837       O853   2.141       .  S
Mn837      O1227   2.178   1_665  S
O838       Mn841   1.939       .  S
C840       C1130   1.478       .  S
Mn841       O848   2.095   1_565  S
C842        O848   1.273       .  A
C842        O858   1.268       .  A
C842       C1110   1.478       .  S
O843      Mn1261   1.951   1_655  S
O843        C845   1.223       .  S
C845       C1150   1.472       .  S
O847       C1220   1.271       .  A
O847       Mn850   2.083       .  S
Mn850      O1234   2.114       .  S
Mn850       O857   1.974       .  S
C852       C1120   1.467       .  S
O854        C859   1.254       .  A
O854      Mn1228   2.112       .  S
Mn855      O1249   1.951   1_455  S
O857        C859   1.219       .  S
C859       C1190   1.479       .  S
C860       C1123   1.472       .  S
C860        C861   1.407       .  A
C860       C1271   1.408       .  A
C861        C862   1.401       .  A
C861        H866   1.084       .  S
C862       C1090   1.477       .  S
C862        C863   1.395       .  A
C863       C1270   1.396       .  A
C863        H867   1.084       .  S
C864       C1080   1.474       .  S
C864       C1269   1.396       .  A
C864        C865   1.401       .  A
C865       C1266   1.408       .  A
C865        H868   1.084       .  S
C869       C1153   1.475       .  S
C869        C870   1.409       .  A
C869       C1280   1.410       .  A
C870        C871   1.405       .  A
C870        H875   1.084       .  S
C871       C1070   1.483       .  S
C871        C872   1.397       .  A
C872       C1279   1.397       .  A
C872        H876   1.083       .  S
C873       C1060   1.488       .  S
C873       C1278   1.397   1_554  A
C873        C874   1.404       .  A
C874       C1275   1.410       .  A
C874        H877   1.083       .  S
C878       C1183   1.491       .  S
C878        C879   1.412   1_554  A
C878        C883   1.408       .  A
C879        C880   1.405       .  A
C879       H1290   1.083       .  S
C880       C1456   1.493       .  S
C880        C881   1.411   1_556  A
C881        C882   1.403       .  A
C881        H885   1.084       .  S
C882       C1040   1.479       .  S
C882        C883   1.399       .  A
C883        H886   1.083       .  S
H884       C1285   1.083       .  S
C887       C1210   1.493       .  S
C887        C888   1.412       .  A
C887       C1298   1.412   1_554  A
C888        C889   1.403       .  A
C888        H893   1.083       .  S
C889       C1023   1.492       .  S
C889        C890   1.408       .  A
C890       C1297   1.407   1_554  A
C890        H894   1.084       .  S
C891       C1030   1.492       .  S
C891       C1296   1.407       .  A
C891        C892   1.402       .  A
C892       C1293   1.412       .  A
C892        H895   1.082       .  S
O896        C923   1.267       .  A
O896       Mn922   2.077       .  S
C897        O930   1.265       .  A
C897        O927   1.273       .  A
C897       C1073   1.480       .  S
O898       Mn905   2.170       .  S
O898       Mn916   2.112       .  S
O898       Mn920   2.171       .  S
O898       Mn922   2.136       .  S
O899        C909   1.266       .  A
O899       Mn933   2.069       .  S
O900        C923   1.271       .  A
O900       Mn916   2.090       .  S
O901        C928   1.256       .  A
O901       Mn920   2.143       .  S
O902       Mn933   1.953       .  S
O902       Mn922   1.963       .  S
O902        C918   1.224       .  S
C903        O906   1.257       .  A
C903       C1033   1.490       .  S
C903        O929   1.217       .  S
O904       Mn924   2.112       .  S
O904       Mn905   2.164       .  S
O904       Mn938   2.114       .  S
O904       Mn920   2.165       .  S
Mn905       O934   2.150       .  S
Mn905       O910   2.116       .  S
Mn905       O937   2.092       .  S
Mn905       O911   2.173       .  S
O906       Mn920   2.136       .  S
O907        C909   1.272       .  A
O907       Mn914   2.094       .  S
C908        O934   1.257       .  A
C908       C1053   1.491       .  S
C908        O921   1.212       .  S
C909       C1093   1.475       .  S
O910        C935   1.255       .  A
O911       Mn914   2.107       .  S
O911       Mn933   2.135       .  S
O911       Mn920   2.176       .  S
O912       Mn916   1.964       .  S
O912       Mn938   1.973       .  S
O912        C935   1.219       .  S
C913        O939   1.272       .  A
C913        O915   1.271       .  A
C913        C980   1.474       .  S
Mn914       O927   2.105       .  S
Mn914       O929   1.952       .  S
Mn914       O921   1.941       .  S
O915       Mn938   2.090       .  S
Mn916       O932   2.079       .  S
Mn916       O926   1.935       .  S
O917        C919   1.267       .  A
O917       Mn922   2.086       .  S
C918        O936   1.253       .  A
C918       C1000   1.473       .  S
C919        O932   1.270       .  A
C919       C1063   1.464       .  S
Mn920       O936   2.088       .  S
O921       Mn924   1.953       .  S
Mn922       O940   1.947       .  S
C923       C1083   1.475       .  S
Mn924       O931   2.093       .  S
Mn924       O939   2.087       .  S
Mn924       O929   1.966       .  S
C925        O931   1.273       .  A
C925        O941   1.272       .  A
C925        C990   1.477       .  S
O926       Mn938   1.947       .  S
O926        C928   1.214       .  S
C928       C1020   1.491       .  S
O930       Mn933   2.072       .  S
Mn933       O940   1.944       .  S
C935       C1043   1.480       .  S
O937        C942   1.251       .  A
Mn938       O941   2.091       .  S
O940        C942   1.220       .  S
C942       C1010   1.472       .  S
C943       C1003   1.476       .  S
C943        C944   1.407       .  A
C943        C948   1.412       .  A
C944        C945   1.401       .  A
C944        H949   1.084       .  S
C945       C1113   1.480       .  S
C945        C946   1.397       .  A
C946        C947   1.398       .  A
C946        H950   1.082       .  S
C947       C1100   1.494       .  S
C947        C948   1.409       .  A
C948        H951   1.083       .  S
C952        C993   1.493       .  S
C952        C953   1.413       .  A
C952        C957   1.411       .  A
C953        C954   1.406       .  A
C953        H958   1.082       .  S
C954       C1170   1.497       .  S
C954        C955   1.409       .  A
C955        C956   1.406       .  A
C955        H959   1.084       .  S
C956       C1163   1.487       .  S
C956        C957   1.400       .  A
C957        H960   1.083       .  S
C961        C983   1.492       .  S
C961        C962   1.411       .  A
C961        C966   1.409       .  A
C962        C963   1.405       .  A
C962        H967   1.082       .  S
C963       C1203   1.493       .  S
C963        C964   1.412       .  A
C964        C965   1.403       .  A
C964        H968   1.084       .  S
C965       C1193   1.480       .  S
C965        C966   1.398       .  A
C966        H969   1.083       .  S
C970       C1013   1.476       .  S
C970        C971   1.411       .  A
C970        C975   1.410       .  A
C971        C972   1.403       .  A
C971        H976   1.083       .  S
C972       C1143   1.479       .  S
C972        C973   1.395       .  A
C973        C974   1.394       .  A
C973        H977   1.084       .  S
C974       C1133   1.477       .  S
C974        C975   1.401       .  A
C975        H978   1.084       .  S
C979        C980   1.403       .  A
C979        C984   1.398       .  A
C979        H985   1.084       .  S
C980        C981   1.402       .  A
C981        C982   1.396       .  A
C981        H986   1.083       .  S
C982        C983   1.408       .  A
C982        H987   1.082       .  S
C983        C984   1.409       .  A
C984        H988   1.082       .  S
C989        C990   1.403       .  A
C989        C994   1.397       .  A
C989        H995   1.083       .  S
C990        C991   1.404       .  A
C991        C992   1.399       .  A
C991        H996   1.083       .  S
C992        C993   1.410       .  A
C992        H997   1.082       .  S
C993        C994   1.408       .  A
C994        H998   1.082       .  S
C999       C1000   1.404       .  A
C999       C1004   1.400       .  A
C999       H1005   1.083       .  S
C1000      C1001   1.404       .  A
C1001      C1002   1.397       .  A
C1001      H1006   1.083       .  S
C1002      C1003   1.402       .  A
C1002      H1007   1.083       .  S
C1003      C1004   1.405       .  A
C1004      H1008   1.083       .  S
C1009      C1010   1.404       .  A
C1009      C1014   1.392       .  A
C1009      H1015   1.083       .  S
C1010      C1011   1.404       .  A
C1011      C1012   1.400       .  A
C1011      H1016   1.083       .  S
C1012      C1013   1.405       .  A
C1012      H1017   1.083       .  S
C1013      C1014   1.402       .  A
C1014      H1018   1.083       .  S
C1019      C1020   1.408       .  A
C1019      C1024   1.391       .  A
C1019      H1025   1.083       .  S
C1020      C1021   1.408       .  A
C1021      C1022   1.412       .  A
C1021      H1026   1.083       .  S
C1022      C1023   1.411       .  A
C1022      H1027   1.083       .  S
C1023      C1024   1.401       .  A
C1024      H1028   1.083       .  S
C1029      C1030   1.411       .  A
C1029      C1034   1.412       .  A
C1029      H1035   1.083       .  S
C1030      C1031   1.402       .  A
C1031      C1032   1.391       .  A
C1031      H1036   1.083       .  S
C1032      C1033   1.408       .  A
C1032      H1037   1.083       .  S
C1033      C1034   1.408       .  A
C1034      H1038   1.083       .  S
C1039      C1040   1.405       .  A
C1039      C1044   1.407       .  A
C1039      H1045   1.083       .  S
C1040      C1041   1.401       .  A
C1041      C1042   1.396       .  A
C1041      H1046   1.083       .  S
C1042      C1043   1.404       .  A
C1042      H1047   1.083       .  S
C1043      C1044   1.407       .  A
C1044      H1048   1.083       .  S
C1049      C1050   1.400       .  A
C1049      C1054   1.390       .  A
C1049      H1055   1.083       .  S
C1050      C1286   1.493       .  S
C1050      C1051   1.413       .  A
C1051      C1052   1.412       .  A
C1051      H1056   1.083       .  S
C1052      C1053   1.407       .  A
C1052      H1057   1.083       .  S
C1053      C1054   1.410       .  A
C1054      H1058   1.083       .  S
C1059      C1060   1.407       .  A
C1059      C1064   1.406       .  A
C1059      H1065   1.082       .  S
C1060      C1061   1.411       .  A
C1061      C1062   1.382       .  A
C1061      H1066   1.082       .  S
C1062      C1063   1.393       .  A
C1062      H1067   1.084       .  S
C1063      C1064   1.407       .  A
C1064      H1068   1.082       .  S
C1069      C1070   1.408       .  A
C1069      C1074   1.395       .  A
C1069      H1075   1.084       .  S
C1070      C1071   1.405       .  A
C1071      C1072   1.399       .  A
C1071      H1076   1.083       .  S
C1072      C1073   1.407       .  A
C1072      H1077   1.083       .  S
C1073      C1074   1.402       .  A
C1074      H1078   1.078       .  S
C1079      C1080   1.403       .  A
C1079      C1084   1.398       .  A
C1079      H1085   1.083       .  S
C1080      C1081   1.405       .  A
C1081      C1082   1.391       .  A
C1081      H1086   1.084       .  S
C1082      C1083   1.402       .  A
C1082      H1087   1.080       .  S
C1083      C1084   1.407       .  A
C1084      H1088   1.083       .  S
C1089      C1090   1.406       .  A
C1089      C1094   1.392       .  A
C1089      H1095   1.084       .  S
C1090      C1091   1.403       .  A
C1091      C1092   1.396       .  A
C1091      H1096   1.083       .  S
C1092      C1093   1.407       .  A
C1092      H1097   1.083       .  S
C1093      C1094   1.402       .  A
C1094      H1098   1.080       .  S
C1099      C1100   1.407       .  A
C1099      C1104   1.406       .  A
C1099      H1105   1.082       .  S
C1100      C1101   1.414       .  A
C1101      C1102   1.386       .  A
C1101      H1106   1.082       .  S
C1102      C1103   1.393       .  A
C1102      H1107   1.084       .  S
C1103      C1104   1.408       .  A
C1104      H1108   1.083       .  S
C1109      C1110   1.402       .  A
C1109      C1114   1.393       .  A
C1109      H1115   1.077       .  S
C1110      C1111   1.406       .  A
C1111      C1112   1.399       .  A
C1111      H1116   1.083       .  S
C1112      C1113   1.406       .  A
C1112      H1117   1.083       .  S
C1113      C1114   1.405       .  A
C1114      H1118   1.084       .  S
C1119      C1120   1.403   1_556  A
C1119      C1530   1.392       .  A
C1119      H1125   1.083       .  S
C1120      C1527   1.403       .  A
C1121      C1526   1.403       .  A
C1121      C1122   1.398       .  A
C1121      H1126   1.083       .  S
C1122      C1123   1.405       .  A
C1122      H1127   1.083       .  S
C1123      C1124   1.401       .  A
C1124      C1525   1.392       .  A
C1124      H1534   1.083       .  S
H1128      C1530   1.083       .  S
C1129      C1130   1.403       .  A
C1129      C1134   1.394       .  A
C1129      H1135   1.080       .  S
C1130      C1131   1.407       .  A
C1131      C1132   1.396       .  A
C1131      H1136   1.083       .  S
C1132      C1133   1.404       .  A
C1132      H1137   1.083       .  S
C1133      C1134   1.406       .  A
C1134      H1138   1.084       .  S
C1139      C1140   1.393       .  A
C1139      C1144   1.385       .  A
C1139      H1145   1.084       .  S
C1140      C1141   1.407       .  A
C1141      C1142   1.403       .  A
C1141      H1146   1.083       .  S
C1142      C1143   1.404       .  A
C1142      H1147   1.083       .  S
C1143      C1144   1.409       .  A
C1144      H1148   1.084       .  S
C1149      C1150   1.405       .  A
C1149      C1154   1.401       .  A
C1149      H1155   1.083       .  S
C1150      C1151   1.403       .  A
C1151      C1152   1.395       .  A
C1151      H1156   1.083       .  S
C1152      C1153   1.401       .  A
C1152      H1157   1.083       .  S
C1153      C1154   1.405       .  A
C1154      H1158   1.083       .  S
C1159      C1160   1.408       .  A
C1159      C1164   1.411       .  A
C1159      H1165   1.083       .  S
C1160      C1161   1.409       .  A
C1161      C1162   1.391       .  A
C1161      H1166   1.083       .  S
C1162      C1163   1.399       .  A
C1162      H1167   1.084       .  S
C1163      C1164   1.410       .  A
C1164      H1168   1.083       .  S
C1169      C1170   1.412       .  A
C1169      C1174   1.412       .  A
C1169      H1175   1.083       .  S
C1170      C1171   1.403       .  A
C1171      C1172   1.392       .  A
C1171      H1176   1.083       .  S
C1172      C1173   1.408       .  A
C1172      H1177   1.083       .  S
C1173      C1174   1.407       .  A
C1174      H1178   1.083       .  S
C1179      C1586   1.405       .  A
C1179      C1590   1.397       .  A
C1179      H1185   1.083       .  S
C1180      C1585   1.405   1_554  A
C1180      C1181   1.403       .  A
C1181      C1182   1.398       .  A
C1181      H1186   1.084       .  S
C1182      C1183   1.410       .  A
C1182      H1187   1.082       .  S
C1183      C1184   1.406   1_554  A
C1184      C1585   1.397       .  A
C1184      H1188   1.082       .  S
C1189      C1190   1.405       .  A
C1189      C1194   1.397       .  A
C1189      H1195   1.083       .  S
C1190      C1191   1.407       .  A
C1191      C1192   1.406       .  A
C1191      H1196   1.083   1_565  S
C1192      C1193   1.405       .  A
C1192      H1197   1.083       .  S
C1193      C1194   1.401       .  A
C1194      H1198   1.083       .  S
C1199      C1200   1.409       .  A
C1199      C1204   1.389       .  A
C1199      H1205   1.083       .  S
C1200      C1201   1.407       .  A
C1201      C1202   1.413       .  A
C1201      H1206   1.083       .  S
C1202      C1203   1.413       .  A
C1202      H1207   1.083       .  S
C1203      C1204   1.400       .  A
C1204      H1208   1.083       .  S
C1209      C1210   1.408       .  A
C1209      C1214   1.399       .  A
C1209      H1215   1.082       .  S
C1210      C1211   1.409   1_554  A
C1211      C1212   1.397       .  A
C1211      H1216   1.082       .  S
C1212      C1213   1.403   1_556  A
C1212      H1623   1.084       .  S
C1213      C1214   1.404       .  A
C1214      H1218   1.083       .  S
H1217      C1618   1.084       .  S
O1219      C1246   1.272       .  A
O1219     Mn1245   2.093   1_545  S
C1220      O1250   1.274       .  A
C1220      C1619   1.477       .  S
O1221     Mn1239   2.131       .  S
O1223      C1246   1.268       .  A
O1224      C1251   1.252       .  A
O1224     Mn1243   2.091   1_545  S
O1225     Mn1245   1.940       .  S
O1225      C1241   1.215       .  S
C1226      O1229   1.257       .  A
C1226      C1579   1.492       .  S
C1226      O1252   1.216       .  S
O1227     Mn1261   2.133       .  S
Mn1228     O1257   2.152       .  S
Mn1228     O1233   2.089   1_565  S
Mn1228     O1234   2.162       .  S
O1230      C1232   1.273       .  A
O1230     Mn1237   2.091   1_655  S
C1231      O1257   1.257       .  A
C1231      C1606   1.491       .  S
C1231      O1244   1.211       .  S
C1232      C1586   1.477       .  S
O1233      C1258   1.251       .  A
O1235      C1258   1.220       .  S
C1236      O1262   1.271       .  A
C1236      O1238   1.263       .  A
C1236      C1546   1.458       .  S
Mn1237     O1252   1.972   1_455  S
O1238     Mn1261   2.067   1_655  S
Mn1239     O1255   2.080       .  S
O1240      C1242   1.271       .  A
C1241      O1259   1.257       .  A
C1241      C1566   1.490       .  S
C1242      O1255   1.266       .  A
C1242      C1509   1.467       .  S
Mn1243     O1259   2.141   1_554  S
O1244     Mn1247   1.939       .  S
C1246      C1536   1.478       .  S
Mn1247     O1254   2.095   1_565  S
C1248      O1254   1.273       .  A
C1248      O1264   1.268       .  A
C1248      C1516   1.478       .  S
O1249      C1251   1.223       .  S
C1251      C1556   1.472       .  S
O1253     Mn1256   2.083       .  S
Mn1256     O1263   1.974       .  S
C1258      C1526   1.467       .  S
O1260      C1265   1.254       .  A
O1263      C1265   1.219       .  S
C1265      C1596   1.479       .  S
C1266      C1529   1.472       .  S
C1266      C1267   1.407   1_554  A
C1267      C1268   1.401       .  A
C1267      H1272   1.084       .  S
C1268      C1496   1.477       .  S
C1268      C1269   1.395   1_556  A
C1269      H1273   1.084       .  S
C1270      C1486   1.474       .  S
C1270      C1271   1.401       .  A
C1271      H1274   1.084       .  S
C1275      C1559   1.475       .  S
C1275      C1276   1.409   1_554  A
C1276      C1277   1.405       .  A
C1276      H1281   1.084       .  S
C1277      C1476   1.483       .  S
C1277      C1278   1.397       .  A
C1278      H1282   1.083       .  S
C1279      C1466   1.488       .  S
C1279      C1280   1.404       .  A
C1280      H1283   1.083       .  S
C1284      C1589   1.491       .  S
C1284      C1285   1.412       .  A
C1284      C1289   1.409       .  A
C1285      C1286   1.405       .  A
C1286      C1287   1.411       .  A
C1287      C1288   1.403       .  A
C1287      H1291   1.084       .  S
C1288      C1446   1.479       .  S
C1288      C1289   1.399       .  A
C1289      H1292   1.083       .  S
C1293      C1616   1.493       .  S
C1293      C1294   1.412       .  A
C1294      C1295   1.403       .  A
C1294      H1299   1.083       .  S
C1295      C1429   1.492       .  S
C1295      C1296   1.408       .  A
C1296      H1300   1.084       .  S
C1297      C1436   1.492       .  S
C1297      C1298   1.402       .  A
C1298      H1301   1.082       .  S
O1302      C1329   1.267       .  A
O1302     Mn1328   2.077       .  S
C1303      O1336   1.265       .  A
C1303      O1333   1.273       .  A
C1303      C1479   1.480       .  S
O1304     Mn1311   2.170       .  S
O1304     Mn1322   2.112       .  S
O1304     Mn1326   2.171       .  S
O1304     Mn1328   2.136       .  S
O1305      C1315   1.266       .  A
O1305     Mn1339   2.069       .  S
O1306      C1329   1.271       .  A
O1306     Mn1322   2.090       .  S
O1307      C1334   1.256       .  A
O1307     Mn1326   2.143       .  S
O1308     Mn1339   1.953       .  S
O1308     Mn1328   1.963       .  S
O1308      C1324   1.224       .  S
C1309      O1312   1.257       .  A
C1309      C1439   1.490       .  S
C1309      O1335   1.217       .  S
O1310     Mn1330   2.112       .  S
O1310     Mn1311   2.164       .  S
O1310     Mn1344   2.114       .  S
O1310     Mn1326   2.165       .  S
Mn1311     O1340   2.150       .  S
Mn1311     O1316   2.116       .  S
Mn1311     O1343   2.092       .  S
Mn1311     O1317   2.173       .  S
O1312     Mn1326   2.136       .  S
O1313      C1315   1.272       .  A
O1313     Mn1320   2.094       .  S
C1314      O1340   1.257       .  A
C1314      C1459   1.491       .  S
C1314      O1327   1.212       .  S
C1315      C1499   1.475       .  S
O1316      C1341   1.255       .  A
O1317     Mn1320   2.107       .  S
O1317     Mn1339   2.135       .  S
O1317     Mn1326   2.176       .  S
O1318     Mn1322   1.964       .  S
O1318     Mn1344   1.973       .  S
O1318      C1341   1.219       .  S
C1319      O1345   1.272       .  A
C1319      O1321   1.271       .  A
C1319      C1386   1.474       .  S
Mn1320     O1333   2.105       .  S
Mn1320     O1335   1.952       .  S
Mn1320     O1327   1.941       .  S
O1321     Mn1344   2.090       .  S
Mn1322     O1338   2.079       .  S
Mn1322     O1332   1.935       .  S
O1323      C1325   1.267       .  A
O1323     Mn1328   2.086       .  S
C1324      O1342   1.253       .  A
C1324      C1406   1.473       .  S
C1325      O1338   1.270       .  A
C1325      C1469   1.464       .  S
Mn1326     O1342   2.088       .  S
O1327     Mn1330   1.953       .  S
Mn1328     O1346   1.947       .  S
C1329      C1489   1.475       .  S
Mn1330     O1337   2.093       .  S
Mn1330     O1345   2.087       .  S
Mn1330     O1335   1.966       .  S
C1331      O1337   1.273       .  A
C1331      O1347   1.272       .  A
C1331      C1396   1.477       .  S
O1332     Mn1344   1.947       .  S
O1332      C1334   1.214       .  S
C1334      C1426   1.491       .  S
O1336     Mn1339   2.072       .  S
Mn1339     O1346   1.944       .  S
C1341      C1449   1.480       .  S
O1343      C1348   1.251       .  A
Mn1344     O1347   2.091       .  S
O1346      C1348   1.220       .  S
C1348      C1416   1.472       .  S
C1349      C1409   1.476       .  S
C1349      C1350   1.407       .  A
C1349      C1354   1.412       .  A
C1350      C1351   1.401       .  A
C1350      H1355   1.084       .  S
C1351      C1519   1.480       .  S
C1351      C1352   1.397       .  A
C1352      C1353   1.398       .  A
C1352      H1356   1.082       .  S
C1353      C1506   1.494       .  S
C1353      C1354   1.409       .  A
C1354      H1357   1.083       .  S
C1358      C1399   1.493       .  S
C1358      C1359   1.413       .  A
C1358      C1363   1.411       .  A
C1359      C1360   1.406       .  A
C1359      H1364   1.082       .  S
C1360      C1576   1.497       .  S
C1360      C1361   1.409       .  A
C1361      C1362   1.406       .  A
C1361      H1365   1.084       .  S
C1362      C1569   1.487       .  S
C1362      C1363   1.400       .  A
C1363      H1366   1.083       .  S
C1367      C1389   1.492       .  S
C1367      C1368   1.411       .  A
C1367      C1372   1.409       .  A
C1368      C1369   1.405       .  A
C1368      H1373   1.082       .  S
C1369      C1609   1.493       .  S
C1369      C1370   1.412       .  A
C1370      C1371   1.403       .  A
C1370      H1374   1.084       .  S
C1371      C1599   1.480       .  S
C1371      C1372   1.398       .  A
C1372      H1375   1.083       .  S
C1376      C1419   1.476       .  S
C1376      C1377   1.411       .  A
C1376      C1381   1.410       .  A
C1377      C1378   1.403       .  A
C1377      H1382   1.083       .  S
C1378      C1549   1.479       .  S
C1378      C1379   1.395       .  A
C1379      C1380   1.394       .  A
C1379      H1383   1.084       .  S
C1380      C1539   1.477       .  S
C1380      C1381   1.401       .  A
C1381      H1384   1.084       .  S
C1385      C1386   1.403       .  A
C1385      C1390   1.398       .  A
C1385      H1391   1.084       .  S
C1386      C1387   1.402       .  A
C1387      C1388   1.396       .  A
C1387      H1392   1.083       .  S
C1388      C1389   1.408       .  A
C1388      H1393   1.082       .  S
C1389      C1390   1.409       .  A
C1390      H1394   1.082       .  S
C1395      C1396   1.403       .  A
C1395      C1400   1.397       .  A
C1395      H1401   1.083       .  S
C1396      C1397   1.404       .  A
C1397      C1398   1.399       .  A
C1397      H1402   1.083       .  S
C1398      C1399   1.410       .  A
C1398      H1403   1.082       .  S
C1399      C1400   1.408       .  A
C1400      H1404   1.082       .  S
C1405      C1406   1.404       .  A
C1405      C1410   1.400       .  A
C1405      H1411   1.083       .  S
C1406      C1407   1.404       .  A
C1407      C1408   1.397       .  A
C1407      H1412   1.083       .  S
C1408      C1409   1.402       .  A
C1408      H1413   1.083       .  S
C1409      C1410   1.405       .  A
C1410      H1414   1.083       .  S
C1415      C1416   1.404       .  A
C1415      C1420   1.392       .  A
C1415      H1421   1.083       .  S
C1416      C1417   1.404       .  A
C1417      C1418   1.400       .  A
C1417      H1422   1.083       .  S
C1418      C1419   1.405       .  A
C1418      H1423   1.083       .  S
C1419      C1420   1.402       .  A
C1420      H1424   1.083       .  S
C1425      C1426   1.408       .  A
C1425      C1430   1.391       .  A
C1425      H1431   1.083       .  S
C1426      C1427   1.408       .  A
C1427      C1428   1.412       .  A
C1427      H1432   1.083       .  S
C1428      C1429   1.411       .  A
C1428      H1433   1.083       .  S
C1429      C1430   1.401       .  A
C1430      H1434   1.083       .  S
C1435      C1436   1.411       .  A
C1435      C1440   1.412       .  A
C1435      H1441   1.083       .  S
C1436      C1437   1.402       .  A
C1437      C1438   1.391       .  A
C1437      H1442   1.083       .  S
C1438      C1439   1.408       .  A
C1438      H1443   1.083       .  S
C1439      C1440   1.408       .  A
C1440      H1444   1.083       .  S
C1445      C1446   1.405       .  A
C1445      C1450   1.407       .  A
C1445      H1451   1.083       .  S
C1446      C1447   1.401       .  A
C1447      C1448   1.396       .  A
C1447      H1452   1.083       .  S
C1448      C1449   1.404       .  A
C1448      H1453   1.083       .  S
C1449      C1450   1.407       .  A
C1450      H1454   1.083       .  S
C1455      C1456   1.400       .  A
C1455      C1460   1.390       .  A
C1455      H1461   1.083       .  S
C1456      C1457   1.413       .  A
C1457      C1458   1.412       .  A
C1457      H1462   1.083       .  S
C1458      C1459   1.407       .  A
C1458      H1463   1.083       .  S
C1459      C1460   1.410       .  A
C1460      H1464   1.083       .  S
C1465      C1466   1.407       .  A
C1465      C1470   1.406       .  A
C1465      H1471   1.082       .  S
C1466      C1467   1.411       .  A
C1467      C1468   1.382       .  A
C1467      H1472   1.082       .  S
C1468      C1469   1.393       .  A
C1468      H1473   1.084       .  S
C1469      C1470   1.407       .  A
C1470      H1474   1.082       .  S
C1475      C1476   1.408       .  A
C1475      C1480   1.395       .  A
C1475      H1481   1.084       .  S
C1476      C1477   1.405       .  A
C1477      C1478   1.399       .  A
C1477      H1482   1.083       .  S
C1478      C1479   1.407       .  A
C1478      H1483   1.083       .  S
C1479      C1480   1.402       .  A
C1480      H1484   1.078       .  S
C1485      C1486   1.403       .  A
C1485      C1490   1.398       .  A
C1485      H1491   1.083       .  S
C1486      C1487   1.405       .  A
C1487      C1488   1.391       .  A
C1487      H1492   1.084       .  S
C1488      C1489   1.402       .  A
C1488      H1493   1.080       .  S
C1489      C1490   1.407       .  A
C1490      H1494   1.083       .  S
C1495      C1496   1.406       .  A
C1495      C1500   1.392       .  A
C1495      H1501   1.084       .  S
C1496      C1497   1.403       .  A
C1497      C1498   1.396       .  A
C1497      H1502   1.083       .  S
C1498      C1499   1.407       .  A
C1498      H1503   1.083       .  S
C1499      C1500   1.402       .  A
C1500      H1504   1.080       .  S
C1505      C1506   1.407       .  A
C1505      C1510   1.406       .  A
C1505      H1511   1.082       .  S
C1506      C1507   1.414       .  A
C1507      C1508   1.386       .  A
C1507      H1512   1.082       .  S
C1508      C1509   1.393       .  A
C1508      H1513   1.084       .  S
C1509      C1510   1.408       .  A
C1510      H1514   1.083       .  S
C1515      C1516   1.402       .  A
C1515      C1520   1.393       .  A
C1515      H1521   1.077       .  S
C1516      C1517   1.406       .  A
C1517      C1518   1.399       .  A
C1517      H1522   1.083       .  S
C1518      C1519   1.406       .  A
C1518      H1523   1.083       .  S
C1519      C1520   1.405       .  A
C1520      H1524   1.084       .  S
C1525      C1526   1.403       .  A
C1525      H1531   1.083       .  S
C1527      C1528   1.398       .  A
C1527      H1532   1.083       .  S
C1528      C1529   1.405       .  A
C1528      H1533   1.083       .  S
C1529      C1530   1.401   1_554  A
C1535      C1536   1.403       .  A
C1535      C1540   1.394       .  A
C1535      H1541   1.080       .  S
C1536      C1537   1.407       .  A
C1537      C1538   1.396       .  A
C1537      H1542   1.083       .  S
C1538      C1539   1.404       .  A
C1538      H1543   1.083       .  S
C1539      C1540   1.406       .  A
C1540      H1544   1.084       .  S
C1545      C1546   1.393       .  A
C1545      C1550   1.385       .  A
C1545      H1551   1.084       .  S
C1546      C1547   1.407       .  A
C1547      C1548   1.403       .  A
C1547      H1552   1.083       .  S
C1548      C1549   1.404       .  A
C1548      H1553   1.083       .  S
C1549      C1550   1.409       .  A
C1550      H1554   1.084       .  S
C1555      C1556   1.405   1_556  A
C1555      C1560   1.401       .  A
C1555      H1561   1.083       .  S
C1556      C1557   1.403       .  A
C1557      C1558   1.395       .  A
C1557      H1562   1.083       .  S
C1558      C1559   1.401       .  A
C1558      H1563   1.083       .  S
C1559      C1560   1.405   1_554  A
C1560      H1564   1.083       .  S
C1565      C1566   1.408       .  A
C1565      C1570   1.411       .  A
C1565      H1571   1.083       .  S
C1566      C1567   1.409       .  A
C1567      C1568   1.391       .  A
C1567      H1572   1.083       .  S
C1568      C1569   1.399       .  A
C1568      H1573   1.084       .  S
C1569      C1570   1.410       .  A
C1570      H1574   1.083       .  S
C1575      C1576   1.412       .  A
C1575      C1580   1.412       .  A
C1575      H1581   1.083       .  S
C1576      C1577   1.403       .  A
C1577      C1578   1.392       .  A
C1577      H1582   1.083       .  S
C1578      C1579   1.408       .  A
C1578      H1583   1.083       .  S
C1579      C1580   1.407       .  A
C1580      H1584   1.083       .  S
C1585      H1591   1.083       .  S
C1586      C1587   1.403       .  A
C1587      C1588   1.398       .  A
C1587      H1592   1.084       .  S
C1588      C1589   1.410       .  A
C1588      H1593   1.082       .  S
C1589      C1590   1.406       .  A
C1590      H1594   1.082       .  S
C1595      C1596   1.405       .  A
C1595      C1600   1.397       .  A
C1595      H1601   1.083       .  S
C1596      C1597   1.407       .  A
C1597      C1598   1.406       .  A
C1597      H1602   1.083   1_565  S
C1598      C1599   1.405       .  A
C1598      H1603   1.083       .  S
C1599      C1600   1.401       .  A
C1600      H1604   1.083       .  S
C1605      C1606   1.409       .  A
C1605      C1610   1.389       .  A
C1605      H1611   1.083       .  S
C1606      C1607   1.407       .  A
C1607      C1608   1.413       .  A
C1607      H1612   1.083       .  S
C1608      C1609   1.413       .  A
C1608      H1613   1.083       .  S
C1609      C1610   1.400       .  A
C1610      H1614   1.083       .  S
C1615      C1616   1.408       .  A
C1615      C1620   1.399       .  A
C1615      H1621   1.082       .  S
C1616      C1617   1.409       .  A
C1617      C1618   1.397       .  A
C1617      H1622   1.082       .  S
C1618      C1619   1.403       .  A
C1619      C1620   1.404       .  A
C1620      H1624   1.083       .  S
