geometry optimzed in LAMMPS
_audit_creation_date              2020-11-30 
_audit_creation_method            'lammps2cif' 
_symmetry_space_group_name_H-M    'P1' 
_symmetry_Int_Tables_number       1 
_symmetry_cell_setting            triclinic 
loop_ 
_symmetry_equiv_pos_as_xyz 
  x,y,z 
_cell_length_a                    35.05617234 
_cell_length_b                    35.81583069043741 
_cell_length_c                    35.719690236661485 
_cell_angle_alpha                 90.4784802732481 
_cell_angle_beta                  90.13872818333428 
_cell_angle_gamma                 89.5645617109701 
loop_ 
_atom_site_label 
_atom_site_type_symbol 
_atom_site_fract_x 
_atom_site_fract_y 
_atom_site_fract_z 
_atom_site_charge 
N1          N  0.57311592  0.11548061  0.50570599    -0.36400
N2          N  0.50701969  0.11765749  0.55721062    -0.56900
N3          N  0.45170548  0.08850913  0.50219448    -0.36400
N4          N  0.51783805  0.08347337  0.45123169    -0.56900
C5          C  0.59128071  0.11629505  0.53949057     0.27200
C6          C  0.59704229  0.09856721  0.48069834     0.27200
C7          C  0.43386287  0.08062961  0.53499873     0.27200
C8          C  0.43888219  0.06407008  0.47567237     0.27200
C9          C  0.53481809  0.13405856  0.57821191     0.35800
C10         C  0.47378806  0.12083914  0.57664264     0.35800
C11         C  0.54953622  0.08792293  0.42980248     0.35800
C12         C  0.48829179  0.07664798  0.42743116     0.35800
C13         C  0.62810805  0.10251465  0.53498256    -0.21700
C14         C  0.63186323  0.09185039  0.49808790    -0.21700
C15         C  0.40847026  0.05166674  0.52875153    -0.21700
C16         C  0.41147542  0.04142448  0.49145469    -0.21700
C17         C  0.51885549  0.14827717  0.61081903    -0.22700
C18         C  0.48052272  0.14018653  0.60976000    -0.22700
C19         C  0.53989808  0.08465758  0.39236226    -0.22700
C20         C  0.50127187  0.07830570  0.39079750    -0.22700
C21         C  0.57445384  0.12520663  0.57492721    -0.18100
C22         C  0.58752687  0.08590231  0.44364065    -0.18100
C23         C  0.45256310  0.06078113  0.43815156    -0.18100
C24         C  0.44124893  0.09763302  0.57068803    -0.18100
H25         H  0.64978165  0.09900269  0.55627117     0.14800
H26         H  0.65694230  0.07879986  0.48595666     0.14800
H27         H  0.39031919  0.03850905  0.54915717     0.14800
H28         H  0.39625025  0.01883566  0.47795702     0.14800
H29         H  0.53404436  0.16003561  0.63450292     0.13100
H30         H  0.46055152  0.14473938  0.63243958     0.13100
H31         H  0.55898541  0.08509363  0.36863897     0.13100
H32         H  0.48506990  0.07268804  0.36556774     0.13100
H33         H  0.54543609  0.12469594  0.50026444     0.26400
H34         H  0.47110095  0.10993849  0.49783990     0.26400
N35         N  0.16569456  0.39355231  0.55886456    -0.36400
N36         N  0.16692829  0.31980541  0.52177306    -0.56900
N37         N  0.17744486  0.35756346  0.44955806    -0.36400
N38         N  0.18198456  0.43154726  0.48756548    -0.56900
C39         C  0.16764644  0.37064162  0.58896562     0.27200
C40         C  0.17099410  0.42917636  0.57129972     0.27200
C41         C  0.17442370  0.32157826  0.43661306     0.27200
C42         C  0.18516196  0.38026498  0.42004227     0.27200
C43         C  0.15915800  0.30837383  0.55733567     0.35800
C44         C  0.16426732  0.28945075  0.49866833     0.35800
C45         C  0.17555760  0.46199121  0.50979594     0.35800
C46         C  0.18135687  0.44365691  0.45143954     0.35800
C47         C  0.17582732  0.39209558  0.62053513    -0.21700
C48         C  0.17690359  0.42884243  0.60961867    -0.21700
C49         C  0.18132801  0.32170282  0.39839119    -0.21700
C50         C  0.18893077  0.35797045  0.38832951    -0.21700
C51         C  0.15304491  0.27025543  0.55692281    -0.22700
C52         C  0.15803984  0.25822992  0.52065233    -0.22700
C53         C  0.17411630  0.49367123  0.48766650    -0.22700
C54         C  0.17690659  0.48207601  0.45108013    -0.22700
C55         C  0.15741161  0.33191167  0.58999273    -0.18100
C56         C  0.16741578  0.46194512  0.54925701    -0.18100
C57         C  0.18108388  0.42053512  0.41862445    -0.18100
C58         C  0.16336894  0.28934246  0.45799075    -0.18100
H59         H  0.17915630  0.38238752  0.64898564     0.14800
H60         H  0.18157049  0.45230958  0.62814563     0.14800
H61         H  0.18007869  0.29881106  0.37878333     0.14800
H62         H  0.19389004  0.36735191  0.36003781     0.14800
H63         H  0.14553051  0.25237834  0.57985457     0.13100
H64         H  0.15603590  0.22948507  0.51143129     0.13100
H65         H  0.16991578  0.52229571  0.49678916     0.13100
H66         H  0.17488208  0.50009945  0.42705006     0.13100
H67         H  0.15528143  0.38631188  0.53259527     0.26400
H68         H  0.16958957  0.36679989  0.47591372     0.26400
N69         N  0.48706179  0.69314362  0.54865902    -0.36400
N70         N  0.41839294  0.69489978  0.49962050    -0.56900
N71         N  0.47078941  0.67746514  0.43734678    -0.36400
N72         N  0.53883761  0.67097649  0.48598645    -0.56900
C73         C  0.45908248  0.69938659  0.57445235     0.27200
C74         C  0.52089520  0.68930781  0.56722832     0.27200
C75         C  0.43634302  0.67677688  0.41983519     0.27200
C76         C  0.49743048  0.66441356  0.41277862     0.27200
C77         C  0.40335191  0.71110313  0.53086416     0.35800
C78         C  0.39556459  0.70468001  0.47036356     0.35800
C79         C  0.56503191  0.68228806  0.51195745     0.35800
C80         C  0.55596427  0.67334104  0.45176014     0.35800
C81         C  0.47543885  0.69810866  0.60991748    -0.21700
C82         C  0.51413036  0.69236231  0.60533597    -0.21700
C83         C  0.44113917  0.66231739  0.38398686    -0.21700
C84         C  0.47949472  0.65473075  0.37953191    -0.21700
C85         C  0.36976897  0.72966126  0.52148486    -0.22700
C86         C  0.36502754  0.72580269  0.48332773    -0.22700
C87         C  0.59931745  0.68944881  0.49417669    -0.22700
C88         C  0.59358146  0.68397166  0.45647034    -0.22700
C89         C  0.42063945  0.71187466  0.56718866    -0.18100
C90         C  0.55814712  0.69028697  0.55087660    -0.18100
C91         C  0.53749151  0.67024615  0.41597625    -0.18100
C92         C  0.40280830  0.69619517  0.43193473    -0.18100
H93         H  0.46130466  0.70306305  0.63642861     0.14800
H94         H  0.53521848  0.69222571  0.62751815     0.14800
H95         H  0.41959920  0.66017455  0.36231762     0.14800
H96         H  0.49314813  0.64583239  0.35378482     0.14800
H97         H  0.35135608  0.74576333  0.53987391     0.13100
H98         H  0.34217192  0.73792071  0.46689783     0.13100
H99         H  0.62540032  0.69950116  0.50686585     0.13100
H100        H  0.61437515  0.68905554  0.43481105     0.13100
H101        H  0.48430633  0.69710653  0.52028610     0.26400
H102        H  0.47678879  0.69309462  0.46102262     0.26400
N103        N  0.79554676  0.38725005  0.43402970    -0.36400
N104        N  0.79873210  0.34501802  0.50647898    -0.56900
N105        N  0.80214669  0.41595933  0.54425665    -0.36400
N106        N  0.79058434  0.45878796  0.47341540    -0.56900
C107        C  0.79893829  0.35171104  0.42062350     0.27200
C108        C  0.79534386  0.41080901  0.40424856     0.27200
C109        C  0.79884611  0.39225378  0.57351055     0.27200
C110        C  0.79483563  0.45091475  0.55730800     0.27200
C111        C  0.80172066  0.31614744  0.48180601     0.35800
C112        C  0.80861088  0.33183909  0.54097506     0.35800
C113        C  0.79700317  0.47253272  0.43850172     0.35800
C114        C  0.79478539  0.48753952  0.49807048     0.35800
C115        C  0.79868883  0.35248349  0.38190567    -0.21700
C116        C  0.79528554  0.38932400  0.37165615    -0.21700
C117        C  0.78836546  0.41250791  0.60519857    -0.21700
C118        C  0.78646707  0.44951921  0.59509215    -0.21700
C119        C  0.80995525  0.28382555  0.50168839    -0.22700
C120        C  0.81581154  0.29390169  0.53846947    -0.22700
C121        C  0.80295163  0.51066727  0.44102582    -0.22700
C122        C  0.80064762  0.52022649  0.47828231    -0.22700
C123        C  0.80735058  0.31915808  0.44192010    -0.18100
C124        C  0.80119923  0.45066012  0.40500969    -0.18100
C125        C  0.80221598  0.48404910  0.53753358    -0.18100
C126        C  0.81188425  0.35439842  0.57399958    -0.18100
H127        H  0.80173016  0.32904670  0.36283995     0.14800
H128        H  0.79513862  0.39930764  0.34314954     0.14800
H129        H  0.78477672  0.40185120  0.63323171     0.14800
H130        H  0.78058976  0.47275686  0.61373892     0.14800
H131        H  0.81485702  0.25620966  0.49009697     0.13100
H132        H  0.82532176  0.27514825  0.56006339     0.13100
H133        H  0.81021388  0.52966528  0.41888883     0.13100
H134        H  0.80626976  0.54767882  0.48987192     0.13100
H135        H  0.79801157  0.39479106  0.46186832     0.26400
H136        H  0.81563487  0.40995825  0.51900441     0.26400
N137        N  0.50460517  0.31682707  0.21016731    -0.36400
N138        N  0.44981552  0.37912980  0.22175849    -0.56900
N139        N  0.50749320  0.43292709  0.19620992    -0.36400
N140        N  0.56362265  0.37098396  0.18520705    -0.56900
C141        C  0.47206691  0.29695917  0.21571719     0.27200
C142        C  0.53282629  0.29265426  0.19971795     0.27200
C143        C  0.47647064  0.45595161  0.19750704     0.27200
C144        C  0.53678420  0.45228517  0.18132029     0.27200
C145        C  0.42635068  0.35011996  0.22933507     0.35800
C146        C  0.42822097  0.41085454  0.22200825     0.35800
C147        C  0.58332066  0.33873803  0.17864757     0.35800
C148        C  0.58398274  0.39928222  0.17000637     0.35800
C149        C  0.48047162  0.25937202  0.21097130    -0.21700
C150        C  0.51851426  0.25659310  0.20171145    -0.21700
C151        C  0.48688886  0.49105491  0.18560560    -0.21700
C152        C  0.52483046  0.48905295  0.17628546    -0.21700
C153        C  0.39000368  0.36390226  0.23651982    -0.22700
C154        C  0.39118876  0.40198657  0.23194369    -0.22700
C155        C  0.61705156  0.34701824  0.16026073    -0.22700
C156        C  0.61735320  0.38499568  0.15471330    -0.22700
C157        C  0.43420948  0.31157584  0.22108244    -0.18100
C158        C  0.56983730  0.30159206  0.18475650    -0.18100
C159        C  0.57173228  0.43727247  0.16642785    -0.18100
C160        C  0.43806942  0.44520378  0.20406182    -0.18100
H161        H  0.46109546  0.23615502  0.21302742     0.14800
H162        H  0.53336219  0.23070762  0.19543051     0.14800
H163        H  0.46887215  0.51547484  0.18274474     0.14800
H164        H  0.54103904  0.51175484  0.16461617     0.14800
H165        H  0.36452940  0.34776108  0.24137305     0.13100
H166        H  0.36679598  0.42069657  0.23247122     0.13100
H167        H  0.63856490  0.32761243  0.15020223     0.13100
H168        H  0.63916758  0.40019461  0.13997373     0.13100
H169        H  0.50712313  0.34558429  0.21166591     0.26400
H170        H  0.50763054  0.40454345  0.20137575     0.26400
N171        N  0.49606813  0.46216089  0.80803202    -0.36400
N172        N  0.56282234  0.41183133  0.80956620    -0.56900
N173        N  0.50617347  0.35151153  0.80135325    -0.36400
N174        N  0.44125110  0.40036499  0.79409310    -0.56900
C175        C  0.52493577  0.48739953  0.80703228     0.27200
C176        C  0.46238770  0.48120196  0.80603174     0.27200
C177        C  0.54026590  0.33356175  0.79955833     0.27200
C178        C  0.47900669  0.32765337  0.78859711     0.27200
C179        C  0.57967401  0.44386297  0.82143441     0.35800
C180        C  0.58320599  0.38287063  0.82405959     0.35800
C181        C  0.41615571  0.42784850  0.80330547     0.35800
C182        C  0.42203229  0.36760377  0.79669391     0.35800
C183        C  0.50890204  0.52274569  0.80231183    -0.21700
C184        C  0.46976296  0.51892037  0.80285630    -0.21700
C185        C  0.53475777  0.29796117  0.78498894    -0.21700
C186        C  0.49619358  0.29420708  0.77829944    -0.21700
C187        C  0.61216440  0.43503781  0.84191572    -0.22700
C188        C  0.61407057  0.39654020  0.84401683    -0.22700
C189        C  0.38018432  0.41260323  0.80810896    -0.22700
C190        C  0.38407046  0.37455265  0.80468454    -0.22700
C191        C  0.56424732  0.48066351  0.81717753    -0.18100
C192        C  0.42541016  0.46587109  0.81138134    -0.18100
C193        C  0.43930234  0.33162071  0.79594244    -0.18100
C194        C  0.57328801  0.34451194  0.82001894    -0.18100
H195        H  0.52379824  0.54907085  0.80118272     0.14800
H196        H  0.44914068  0.54150983  0.80178241     0.14800
H197        H  0.55593420  0.27591172  0.78267202     0.14800
H198        H  0.48193295  0.26878049  0.76986985     0.14800
H199        H  0.63135917  0.45427739  0.85573269     0.13100
H200        H  0.63536884  0.38058347  0.85907395     0.13100
H201        H  0.35404725  0.42726905  0.81521298     0.13100
H202        H  0.36170831  0.35437602  0.80881522     0.13100
H203        H  0.49861119  0.43453254  0.81548240     0.26400
H204        H  0.50102281  0.37466936  0.81820876     0.26400
N205        N  0.05674430  0.56897707  0.95161475    -0.36400
N206        N  0.99999341  0.59736262  0.00343090    -0.56900
N207        N  0.94091401  0.57539349  0.94798896    -0.36400
N208        N  0.99781600  0.55779196  0.89099453    -0.56900
C209        C  0.07993902  0.57651989  0.98153120     0.27200
C210        C  0.07902118  0.55978295  0.92186369     0.27200
C211        C  0.91937196  0.58989622  0.97605473     0.27200
C212        C  0.91931411  0.57524959  0.91647817     0.27200
C213        C  0.03061860  0.59872714  0.02703706     0.35800
C214        C  0.96816717  0.60198669  0.02477530     0.35800
C215        C  0.02819435  0.54071943  0.87455059     0.35800
C216        C  0.96606027  0.54593000  0.87255717     0.35800
C217        C  0.11744826  0.57287255  0.97045203    -0.21700
C218        C  0.11697573  0.56355917  0.93286268    -0.21700
C219        C  0.88370534  0.59940904  0.96251445    -0.21700
C220        C  0.88385882  0.59088327  0.92473989    -0.21700
C221        C  0.01799632  0.60760788  0.06282441    -0.22700
C222        C  0.97880660  0.60942897  0.06143305    -0.22700
C223        C  0.01559649  0.51905176  0.84456623    -0.22700
C224        C  0.97638779  0.52229163  0.84339216    -0.22700
C225        C  0.06824782  0.58409190  0.01917286    -0.18100
C226        C  0.06690253  0.54273069  0.88708896    -0.18100
C227        C  0.92790114  0.55499172  0.88292129    -0.18100
C228        C  0.93029553  0.59135928  0.01408957    -0.18100
H229        H  0.14258019  0.57657372  0.98767812     0.14800
H230        H  0.14205097  0.55848832  0.91592256     0.14800
H231        H  0.85994590  0.61081504  0.97824898     0.14800
H232        H  0.85979412  0.59373886  0.90589479     0.14800
H233        H  0.03512952  0.60924832  0.08802042     0.13100
H234        H  0.96002802  0.61267971  0.08527479     0.13100
H235        H  0.03268612  0.50158617  0.82617794     0.13100
H236        H  0.95764489  0.50799738  0.82397923     0.13100
H237        H  0.02749392  0.56527289  0.95249577     0.26400
H238        H  0.96618919  0.56053877  0.95195587     0.26400
N239        N  0.75515122  0.90034896  0.94180357    -0.36400
N240        N  0.73511794  0.83772032  0.99134296    -0.56900
N241        N  0.72556195  0.88657656  0.05836497    -0.36400
N242        N  0.74209397  0.94955554  0.00832199    -0.56900
C243        C  0.74627119  0.87375641  0.91572038     0.27200
C244        C  0.75217511  0.93416150  0.92478936     0.27200
C245        C  0.70857319  0.85465807  0.06999182     0.27200
C246        C  0.71002770  0.91543073  0.07843740     0.27200
C247        C  0.74018311  0.81908345  0.95835730     0.35800
C248        C  0.73067304  0.81163248  0.01833975     0.35800
C249        C  0.75204773  0.97526297  0.98227510     0.35800
C250        C  0.73633388  0.96833470  0.04116908     0.35800
C251        C  0.74159809  0.89073383  0.88120243    -0.21700
C252        C  0.74515224  0.92851970  0.88689696    -0.21700
C253        C  0.68361894  0.86329057  0.09895132    -0.21700
C254        C  0.68452258  0.90132719  0.10420748    -0.21700
C255        C  0.73976008  0.78103656  0.96449651    -0.22700
C256        C  0.73458634  0.77629975  0.00231051    -0.22700
C257        C  0.75321403  0.01028327  0.99893350    -0.22700
C258        C  0.74360800  0.00594165  0.03592079    -0.22700
C259        C  0.73675904  0.83550051  0.92246621    -0.18100
C260        C  0.74939243  0.97002214  0.94272518    -0.18100
C261        C  0.71597293  0.95435123  0.07277319    -0.18100
C262        C  0.71249540  0.81830861  0.05369176    -0.18100
H263        H  0.73380756  0.87743608  0.85497547     0.14800
H264        H  0.74046542  0.94966687  0.86587000     0.14800
H265        H  0.66530775  0.84441470  0.11393180     0.14800
H266        H  0.66720425  0.91692297  0.12399903     0.14800
H267        H  0.74108565  0.75896092  0.94367884     0.13100
H268        H  0.73038766  0.74977396  0.01595473     0.13100
H269        H  0.75761831  0.03664739  0.98504304     0.13100
H270        H  0.73934235  0.02838671  0.05599736     0.13100
H271        H  0.76041285  0.89599049  0.97005200     0.26400
H272        H  0.74654178  0.88841643  0.03791643     0.26400
N273        N  0.94664001  0.23540826  0.03088792    -0.36400
N274        N  0.00226534  0.21264484  0.08821863    -0.56900
N275        N  0.06115149  0.21848876  0.03047116    -0.36400
N276        N  0.00473549  0.23540905  0.97049923    -0.56900
C277        C  0.92340311  0.22927202  0.06071098     0.27200
C278        C  0.92453731  0.23702477  0.99955560     0.27200
C279        C  0.08273376  0.20709464  0.06009759     0.27200
C280        C  0.08334636  0.21718914  0.99933353     0.27200
C281        C  0.97219425  0.22056074  0.11099796     0.35800
C282        C  0.03352909  0.21029180  0.11068483     0.35800
C283        C  0.97512838  0.25263070  0.95260874     0.35800
C284        C  0.03753049  0.24580027  0.95313536     0.35800
C285        C  0.88616622  0.22646832  0.04827347    -0.21700
C286        C  0.88691454  0.23043336  0.00986551    -0.21700
C287        C  0.11884090  0.19766960  0.04758253    -0.21700
C288        C  0.11908437  0.20330197  0.00939317    -0.21700
C289        C  0.98400306  0.22056639  0.14801956    -0.22700
C290        C  0.02257823  0.21384962  0.14783116    -0.22700
C291        C  0.98919639  0.27318558  0.92304369    -0.22700
C292        C  0.02848356  0.26900269  0.92345634    -0.22700
C293        C  0.93442779  0.22944900  0.09916314    -0.18100
C294        C  0.93586589  0.25121961  0.96364272    -0.18100
C295        C  0.07548997  0.23570316  0.96455235    -0.18100
C296        C  0.07237087  0.20973824  0.09860915    -0.18100
H297        H  0.86099425  0.22250418  0.06522725     0.14800
H298        H  0.86209603  0.23071784  0.99177722     0.14800
H299        H  0.14289370  0.18886268  0.06447460     0.14800
H300        H  0.14376584  0.20021925  0.99144212     0.14800
H301        H  0.96684105  0.22601682  0.17264141     0.13100
H302        H  0.04087357  0.21345849  0.17228026     0.13100
H303        H  0.97300480  0.29041309  0.90388711     0.13100
H304        H  0.04817469  0.28227674  0.90455378     0.13100
H305        H  0.97472321  0.24420199  0.03276187     0.26400
H306        H  0.03530080  0.23257377  0.03248672     0.26400
N307        N  0.31791648  0.88756859  0.07387382    -0.36400
N308        N  0.29970138  0.83056353  0.01670387    -0.56900
N309        N  0.28617670  0.88760281  0.95758456    -0.36400
N310        N  0.31033661  0.94393788  0.01330783    -0.56900
C311        C  0.32950392  0.85607043  0.09200031     0.27200
C312        C  0.33570233  0.91725580  0.09024975     0.27200
C313        C  0.28870381  0.85623188  0.93596921     0.27200
C314        C  0.29065157  0.91733626  0.93451238     0.27200
C315        C  0.30339981  0.80805721  0.04700136     0.35800
C316        C  0.29293614  0.80797855  0.98661876     0.35800
C317        C  0.31740783  0.96662008  0.04328050     0.35800
C318        C  0.30239047  0.96642548  0.98356528     0.35800
C319        C  0.35367757  0.86617634  0.12109219    -0.21700
C320        C  0.35760401  0.90446360  0.11997561    -0.21700
C321        C  0.29093238  0.86639787  0.89863504    -0.21700
C322        C  0.29196647  0.90466177  0.89770567    -0.21700
C323        C  0.29734465  0.77124169  0.03589705    -0.22700
C324        C  0.29166988  0.77120187  0.99785871    -0.22700
C325        C  0.31262979  0.00355922  0.03236967    -0.22700
C326        C  0.30418594  0.00337044  0.99472936    -0.22700
C327        C  0.32092507  0.81824569  0.08194890    -0.18100
C328        C  0.33385140  0.95538631  0.07851278    -0.18100
C329        C  0.29991990  0.95476659  0.94532696    -0.18100
C330        C  0.29444280  0.81880756  0.94848352    -0.18100
H331        H  0.36800678  0.84774519  0.14053707     0.14800
H332        H  0.37562490  0.92077353  0.13838701     0.14800
H333        H  0.29391624  0.84801981  0.87458515     0.14800
H334        H  0.29609796  0.92119660  0.87282779     0.14800
H335        H  0.30004292  0.74650424  0.05293961     0.13100
H336        H  0.28862855  0.74672509  0.98015208     0.13100
H337        H  0.31667637  0.02836987  0.04936861     0.13100
H338        H  0.30063786  0.02769345  0.97724375     0.13100
H339        H  0.29818452  0.88891107  0.05215548     0.26400
H340        H  0.28416448  0.88850188  0.98652085     0.26400
N341        N  0.00701496  0.98224601  0.66289177    -0.36400
N342        N  0.05899494  0.91995966  0.67197335    -0.56900
N343        N  0.99204687  0.87073508  0.66436780    -0.36400
N344        N  0.93892755  0.93268386  0.66123378    -0.56900
C345        C  0.04025620  0.00080919  0.66913436     0.27200
C346        C  0.97771615  0.00641084  0.66935842     0.27200
C347        C  0.02026259  0.84686811  0.67490894     0.27200
C348        C  0.95850007  0.85181687  0.66488575     0.27200
C349        C  0.08540667  0.94707435  0.66757635     0.35800
C350        C  0.07770021  0.88675316  0.66809353     0.35800
C351        C  0.92221731  0.96591311  0.65217194     0.35800
C352        C  0.91495132  0.90501240  0.64981676     0.35800
C353        C  0.03187307  0.03696069  0.68056249    -0.21700
C354        C  0.99269682  0.04024934  0.68143663    -0.21700
C355        C  0.00407556  0.81270711  0.68341371    -0.21700
C356        C  0.96546020  0.81563293  0.67653164    -0.21700
C357        C  0.12131070  0.93074393  0.66505948    -0.22700
C358        C  0.11635176  0.89279508  0.66387358    -0.22700
C359        C  0.88665850  0.95943918  0.63663761    -0.22700
C360        C  0.88178936  0.92127390  0.63571883    -0.22700
C361        C  0.07752797  0.98604471  0.66241158    -0.18100
C362        C  0.93919589  0.00184895  0.65668662    -0.18100
C363        C  0.92318623  0.86535818  0.65038026    -0.18100
C364        C  0.05993369  0.85130864  0.66668061    -0.18100
H365        H  0.05134984  0.05911631  0.68741373     0.14800
H366        H  0.97693482  0.06563427  0.68775505     0.14800
H367        H  0.01918096  0.78726096  0.69055709     0.14800
H368        H  0.94540007  0.79306505  0.67867166     0.14800
H369        H  0.14833471  0.94484395  0.66332457     0.13100
H370        H  0.13887193  0.87236197  0.66032069     0.13100
H371        H  0.86642803  0.97991807  0.62641512     0.13100
H372        H  0.85675346  0.90721110  0.62507503     0.13100
H373        H  0.00467675  0.95685242  0.64882938     0.26400
H374        H  0.99640610  0.89576545  0.65060988     0.26400
N375        N  0.00342063  0.90743986  0.34298999    -0.36400
N376        N  0.93312415  0.86100802  0.34041805    -0.56900
N377        N  0.97892462  0.79266513  0.33111213    -0.36400
N378        N  0.04947518  0.83929666  0.33945969    -0.56900
C379        C  0.97637348  0.93410699  0.34960054     0.27200
C380        C  0.03858559  0.92300509  0.34847038     0.27200
C381        C  0.94377006  0.77713873  0.33609409     0.27200
C382        C  0.00570598  0.76566350  0.33696145     0.27200
C383        C  0.91670385  0.89557414  0.34196563     0.35800
C384        C  0.90536586  0.83621359  0.33117748     0.35800
C385        C  0.07787614  0.86494623  0.33714667     0.35800
C386        C  0.06554586  0.80484686  0.33496631     0.35800
C387        C  0.99493718  0.96767730  0.35615993    -0.21700
C388        C  0.03344746  0.96051805  0.35697939    -0.21700
C389        C  0.94844740  0.73942927  0.34304238    -0.21700
C390        C  0.98691730  0.73204096  0.34216428    -0.21700
C391        C  0.87837177  0.89269905  0.33312210    -0.22700
C392        C  0.87168487  0.85578967  0.32476725    -0.22700
C393        C  0.11186796  0.84633390  0.32932534    -0.22700
C394        C  0.10434476  0.80867681  0.32911087    -0.22700
C395        C  0.93553406  0.92924064  0.35282770    -0.18100
C396        C  0.07492996  0.90412421  0.34691338    -0.18100
C397        C  0.04651767  0.77009848  0.34002557    -0.18100
C398        C  0.90776091  0.79626127  0.33554970    -0.18100
H399        H  0.98207079  0.99479560  0.36100663     0.14800
H400        H  0.05452869  0.98119499  0.36384890     0.14800
H401        H  0.92687361  0.71897253  0.34889288     0.14800
H402        H  0.99956509  0.70467495  0.34574607     0.14800
H403        H  0.85704841  0.91446340  0.33215729     0.13100
H404        H  0.84434255  0.84427504  0.31690143     0.13100
H405        H  0.13975365  0.85854996  0.32576970     0.13100
H406        H  0.12544864  0.78690513  0.32524862     0.13100
H407        H  0.99781841  0.88000024  0.33616750     0.26400
H408        H  0.98451941  0.81998351  0.32375802     0.26400
C409        C  0.60605141  0.78016417  0.57616003     0.03400
C410        C  0.63500300  0.77063090  0.60102771    -0.12800
C411        C  0.63961927  0.73418782  0.61321477     0.00900
C412        C  0.61484070  0.70583351  0.59802812    -0.11300
C413        C  0.58676481  0.71547129  0.57034872     0.03400
C414        C  0.58335829  0.75270246  0.56010686    -0.10700
H415        H  0.65177431  0.79262355  0.61388910     0.09000
H416        H  0.61726492  0.67729850  0.60752492     0.06500
H417        H  0.56132932  0.76048899  0.54030940     0.06300
C418        C  0.59605540  0.04431459  0.63419875     0.03400
C419        C  0.57542173  0.07249827  0.61689311    -0.12800
C420        C  0.59217893  0.10644617  0.60866797     0.00900
C421        C  0.62728785  0.11547983  0.62694160    -0.11300
C422        C  0.64613139  0.08835697  0.65003306     0.03400
C423        C  0.63104273  0.05224399  0.65146719    -0.10700
H424        H  0.54853467  0.06531197  0.60365023     0.09000
H425        H  0.63998018  0.14258277  0.62280981     0.06500
H426        H  0.64654310  0.03034689  0.66589157     0.06300
C427        C  0.88829150  0.54319539  0.53412237     0.03400
C428        C  0.86480850  0.51241553  0.53162771    -0.12800
C429        C  0.83213015  0.50984982  0.55347510     0.00900
C430        C  0.82877974  0.53379802  0.58534389    -0.11300
C431        C  0.85684556  0.56183056  0.59235347     0.03400
C432        C  0.88531622  0.56729234  0.56526214    -0.10700
H433        H  0.86833470  0.49317657  0.50827750     0.09000
H434        H  0.80389104  0.53236836  0.60308195     0.06500
H435        H  0.90480469  0.59049358  0.56814483     0.06300
C436        C  0.09604856  0.54088574  0.54998202     0.03400
C437        C  0.10762145  0.56395329  0.57914125    -0.12800
C438        C  0.13653695  0.55298111  0.60333093     0.00900
C439        C  0.15714312  0.51913436  0.59551754    -0.11300
C440        C  0.14586015  0.49566275  0.56484586     0.03400
C441        C  0.11314626  0.50610017  0.54464206    -0.10700
H442        H  0.09387830  0.59096693  0.58295154     0.09000
H443        H  0.18242747  0.51265530  0.61164256     0.06500
H444        H  0.10269967  0.48821315  0.52226320     0.06300
C445        C  0.58443963  0.56681192  0.87622614     0.03400
C446        C  0.61940841  0.57921763  0.86277444    -0.12800
C447        C  0.63909733  0.55947173  0.83459605     0.00900
C448        C  0.62206514  0.52651598  0.81917422    -0.11300
C449        C  0.58629018  0.51369832  0.83281634     0.03400
C450        C  0.56926685  0.53344846  0.86242541    -0.10700
H451        H  0.63119350  0.60470844  0.87437987     0.09000
H452        H  0.63568337  0.51186651  0.79612801     0.06500
H453        H  0.54334407  0.52270466  0.87468574     0.06300
C454        C  0.57711758  0.49876801  0.08291099     0.03400
C455        C  0.56900376  0.46821152  0.10516483    -0.12800
C456        C  0.59072410  0.46113959  0.13742057     0.00900
C457        C  0.62337679  0.48349608  0.14460191    -0.11300
C458        C  0.63449285  0.51164511  0.11881287     0.03400
C459        C  0.61133046  0.51816425  0.08775992    -0.10700
H460        H  0.54221545  0.45376233  0.10098099     0.09000
H461        H  0.63828231  0.48084055  0.17104723     0.06500
H462        H  0.61677901  0.54233847  0.07054177     0.06300
C463        C  0.86884691  0.45735315  0.32229073     0.03400
C464        C  0.85678888  0.48903813  0.30350051    -0.12800
C465        C  0.82779905  0.51158930  0.31757360     0.00900
C466        C  0.80763065  0.49986045  0.35029056    -0.11300
C467        C  0.82025420  0.46751344  0.37049336     0.03400
C468        C  0.85262255  0.44841243  0.35671336    -0.10700
H469        H  0.86985221  0.49594380  0.27694638     0.09000
H470        H  0.78244794  0.51509197  0.35927300     0.06500
H471        H  0.86449564  0.42519596  0.37229486     0.06300
C472        C  0.10988856  0.42616012  0.34001532     0.03400
C473        C  0.12104648  0.45587814  0.31777816    -0.12800
C474        C  0.15376855  0.47603168  0.32581642     0.00900
C475        C  0.17556076  0.46607648  0.35888660    -0.11300
C476        C  0.16297815  0.43605347  0.38271550     0.03400
C477        C  0.12937317  0.41791361  0.37265330    -0.10700
H478        H  0.10391518  0.46338383  0.29361246     0.09000
H479        H  0.20153984  0.48087839  0.36554071     0.06500
H480        H  0.11869772  0.39563910  0.39004983     0.06300
C481        C  0.56927290  0.75439296  0.36723944     0.03400
C482        C  0.59699559  0.74300504  0.34156783    -0.12800
C483        C  0.60529376  0.70542776  0.33632172     0.00900
C484        C  0.58647865  0.67886302  0.36004729    -0.11300
C485        C  0.55546622  0.69087254  0.38358040     0.03400
C486        C  0.54464090  0.72832257  0.38234341    -0.10700
H487        H  0.61612112  0.76318351  0.32950860     0.09000
H488        H  0.59609382  0.65008571  0.36065007     0.06500
H489        H  0.52213325  0.73829340  0.40083482     0.06300
C490        C  0.63511551  0.99219425  0.43225151     0.03400
C491        C  0.61657729  0.02352776  0.44667195    -0.12800
C492        C  0.61320160  0.05632973  0.42611047     0.00900
C493        C  0.63106783  0.05743805  0.39015066    -0.11300
C494        C  0.65151300  0.02542648  0.37598975     0.03400
C495        C  0.65324238  0.99339086  0.39760156    -0.10700
H496        H  0.60193922  0.02126297  0.47330391     0.09000
H497        H  0.62979662  0.08278946  0.37390759     0.06500
H498        H  0.66755095  0.96866223  0.38665217     0.06300
C499        C  0.88055820  0.36334546  0.65632701     0.03400
C500        C  0.87738876  0.32937916  0.67519493    -0.12800
C501        C  0.85420758  0.30084433  0.66130924     0.00900
C502        C  0.83190121  0.30787735  0.62826235    -0.11300
C503        C  0.83484641  0.34241884  0.60859019     0.03400
C504        C  0.86060969  0.36892207  0.62298294    -0.10700
H505        H  0.89394204  0.32480630  0.70044737     0.09000
H506        H  0.81131860  0.28731997  0.61932450     0.06500
H507        H  0.86452966  0.39508468  0.60853090     0.06300
C508        C  0.10012279  0.33526683  0.68068674     0.03400
C509        C  0.11270770  0.34143614  0.64406072    -0.12800
C510        C  0.14033013  0.31812068  0.62676989     0.00900
C511        C  0.15148167  0.28489968  0.64605861    -0.11300
C512        C  0.13534467  0.27631760  0.68158766     0.03400
C513        C  0.11136045  0.30266858  0.69871407    -0.10700
H514        H  0.10179727  0.36547280  0.62913209     0.09000
H515        H  0.17363138  0.26693989  0.63473823     0.06500
H516        H  0.10138768  0.29782706  0.72692857     0.06300
C517        C  0.40295929  0.78866320  0.63907154     0.03400
C518        C  0.41891761  0.76675927  0.61049965    -0.12800
C519        C  0.40094395  0.73413246  0.59789128     0.00900
C520        C  0.36584277  0.72398262  0.61495214    -0.11300
C521        C  0.34876485  0.74755410  0.64277601     0.03400
C522        C  0.36744472  0.77990033  0.65383301    -0.10700
H523        H  0.44575357  0.77506256  0.59815932     0.09000
H524        H  0.35244393  0.69787139  0.60726943     0.06500
H525        H  0.35572916  0.79693331  0.67636612     0.06300
C526        C  0.44025355  0.03102793  0.65074695     0.03400
C527        C  0.45149615  0.05518710  0.62281861    -0.12800
C528        C  0.42559245  0.07901704  0.60536861     0.00900
C529        C  0.38764550  0.08160667  0.62011049    -0.11300
C530        C  0.37683614  0.05989123  0.65212141     0.03400
C531        C  0.40364726  0.03420938  0.66629219    -0.10700
H532        H  0.48009649  0.05223983  0.61154630     0.09000
H533        H  0.36743029  0.10086205  0.60768377     0.06500
H534        H  0.39545565  0.01539820  0.68843853     0.06300
C535        C  0.57587834  0.26387624  0.88726235     0.03400
C536        C  0.56497163  0.29601839  0.86821962    -0.12800
C537        C  0.59058954  0.31478870  0.84478989     0.00900
C538        C  0.62918457  0.30196863  0.84336553    -0.11300
C539        C  0.64080184  0.27018596  0.86459018     0.03400
C540        C  0.61361946  0.25156370  0.88575568    -0.10700
H541        H  0.53573346  0.30577761  0.87066798     0.09000
H542        H  0.64913981  0.31506674  0.82458323     0.06500
H543        H  0.62205980  0.22714645  0.90163815     0.06300
C544        C  0.59212871  0.22085873  0.11866888     0.03400
C545        C  0.57532938  0.25243616  0.13527422    -0.12800
C546        C  0.59190777  0.26981457  0.16666928     0.00900
C547        C  0.62795339  0.25645420  0.17953245    -0.11300
C548        C  0.64532573  0.22475778  0.16207567     0.03400
C549        C  0.62610530  0.20666304  0.13301811    -0.10700
H550        H  0.54897190  0.26359421  0.12382173     0.09000
H551        H  0.64143581  0.26956613  0.20351281     0.06500
H552        H  0.63816710  0.18142168  0.12075275     0.06300
C553        C  0.35642077  0.48461813  0.89000114     0.03400
C554        C  0.38876241  0.47301125  0.87008398    -0.12800
C555        C  0.39688738  0.48746626  0.83462007     0.00900
C556        C  0.37387152  0.51705613  0.82098462    -0.11300
C557        C  0.34344871  0.53165804  0.84306761     0.03400
C558        C  0.33479451  0.51485315  0.87711198    -0.10700
H559        H  0.40606424  0.45023705  0.88079741     0.09000
H560        H  0.37825711  0.52728718  0.79289042     0.06500
H561        H  0.30944838  0.52361910  0.89227807     0.06300
C562        C  0.36870026  0.44568189  0.12435896     0.03400
C563        C  0.39534604  0.43570154  0.15096915    -0.12800
C564        C  0.40811211  0.46127521  0.17782698     0.00900
C565        C  0.39298362  0.49879734  0.17679125    -0.11300
C566        C  0.36570137  0.50934788  0.14837718     0.03400
C567        C  0.35501341  0.48233436  0.12234087    -0.10700
H568        H  0.40610441  0.40720793  0.15083600     0.09000
H569        H  0.40096672  0.51870591  0.19832680     0.06500
H570        H  0.33447145  0.48959927  0.10081618     0.06300
C571        C  0.38773839  0.76357711  0.35288328     0.03400
C572        C  0.40175556  0.74588679  0.38473648    -0.12800
C573        C  0.38145936  0.71714602  0.40182784     0.00900
C574        C  0.34538483  0.70693329  0.38646032    -0.11300
C575        C  0.33092674  0.72555360  0.35402658     0.03400
C576        C  0.35246172  0.75393670  0.33817127    -0.10700
H577        H  0.42948268  0.75377453  0.39567800     0.09000
H578        H  0.33022466  0.68342008  0.39788767     0.06500
H579        H  0.34251379  0.76770944  0.31298722     0.06300
C580        C  0.44527882  0.98059745  0.36813245     0.03400
C581        C  0.45812692  0.00476935  0.39619240    -0.12800
C582        C  0.43434791  0.03301554  0.41103181     0.00900
C583        C  0.39549106  0.03445440  0.39853665    -0.11300
C584        C  0.38179961  0.00863246  0.37079011     0.03400
C585        C  0.40744746  0.98257274  0.35580425    -0.10700
H586        H  0.48736281  0.00217601  0.40582530     0.09000
H587        H  0.37681843  0.05645289  0.40879441     0.06500
H588        H  0.39783007  0.96348330  0.33406669     0.06300
C589        C  0.89190456  0.25855593  0.44643551     0.03400
C590        C  0.87070097  0.29114760  0.44488782    -0.12800
C591        C  0.83600208  0.29169409  0.42570843     0.00900
C592        C  0.82902301  0.26299528  0.39857368    -0.11300
C593        C  0.85572029  0.23273579  0.39419990     0.03400
C594        C  0.88549866  0.22979515  0.42036360    -0.10700
H595        H  0.87687296  0.31319523  0.46502732     0.09000
H596        H  0.80262903  0.26296659  0.38278421     0.06500
H597        H  0.90312417  0.20480344  0.42113684     0.06300
C598        C  0.09557194  0.20739913  0.44810664     0.03400
C599        C  0.10866408  0.18655382  0.41760106    -0.12800
C600        C  0.13788466  0.20026544  0.39524667     0.00900
C601        C  0.15764598  0.23344427  0.40741439    -0.11300
C602        C  0.14427422  0.25516737  0.43887703     0.03400
C603        C  0.11045248  0.24283049  0.45546308    -0.10700
H604        H  0.09534599  0.16014674  0.41069097     0.09000
H605        H  0.18376398  0.24069741  0.39339606     0.06500
H606        H  0.09694985  0.25990457  0.47695875     0.06300
C607        C  0.42472011  0.27395108  0.88137587     0.03400
C608        C  0.44036799  0.29594500  0.85374547    -0.12800
C609        C  0.42183780  0.30141118  0.81962046     0.00900
C610        C  0.38774664  0.28074097  0.81224346    -0.11300
C611        C  0.37196327  0.25736445  0.84070947     0.03400
C612        C  0.39003639  0.25594312  0.87524227    -0.10700
H613        H  0.46644920  0.31088647  0.85986382     0.09000
H614        H  0.37377889  0.28293892  0.78529193     0.06500
H615        H  0.37724577  0.23979760  0.89741196     0.06300
C616        C  0.37258382  0.28363146  0.14121685     0.03400
C617        C  0.39131254  0.30542250  0.16765191    -0.12800
C618        C  0.40186157  0.29056116  0.20215555     0.00900
C619        C  0.38577626  0.25548224  0.21251973    -0.11300
C620        C  0.36014392  0.23660353  0.18736252     0.03400
C621        C  0.35448033  0.25097481  0.15164305    -0.10700
H622        H  0.40505633  0.33070374  0.15808779     0.09000
H623        H  0.39297950  0.24321884  0.23923261     0.06500
H624        H  0.33950186  0.23456001  0.13067798     0.06300
C625        C  0.11345516  0.28225679  0.16280896     0.03400
C626        C  0.13915594  0.26359516  0.18523612    -0.12800
C627        C  0.14692992  0.22614528  0.17864364     0.00900
C628        C  0.12735640  0.20665411  0.14906725    -0.11300
C629        C  0.10090385  0.22635613  0.12584730     0.03400
C630        C  0.09600102  0.26454271  0.13243229    -0.10700
H631        H  0.15265282  0.27822585  0.20841494     0.09000
H632        H  0.13197900  0.17700024  0.14487509     0.06500
H633        H  0.07549237  0.28010388  0.11575219     0.06300
C634        C  0.07304749  0.51411777  0.09571787     0.03400
C635        C  0.06417080  0.53366018  0.06388222    -0.12800
C636        C  0.08754683  0.56222829  0.05111632     0.00900
C637        C  0.12400521  0.56781715  0.07043099    -0.11300
C638        C  0.13480011  0.54460215  0.10242271     0.03400
C639        C  0.10805519  0.51845846  0.11365901    -0.10700
H640        H  0.03736528  0.52756748  0.04985656     0.09000
H641        H  0.14266373  0.58996859  0.06160082     0.06500
H642        H  0.11445250  0.50038980  0.13709715     0.06300
C643        C  0.39979724  0.03776823  0.09511780     0.03400
C644        C  0.38374146  0.00487498  0.08063396    -0.12800
C645        C  0.35599031  0.98496698  0.10034711     0.00900
C646        C  0.34941135  0.99507735  0.13857257    -0.11300
C647        C  0.36824669  0.02656733  0.15487179     0.03400
C648        C  0.39116011  0.04843603  0.13193411    -0.10700
H649        H  0.39194279  0.99481288  0.05315309     0.09000
H650        H  0.32864429  0.97990123  0.15473527     0.06500
H651        H  0.40244061  0.07422794  0.14320711     0.06300
C652        C  0.63326575  0.02095879  0.07943348     0.03400
C653        C  0.65900060  0.99376894  0.06791309    -0.12800
C654        C  0.68837747  0.98152028  0.09135486     0.00900
C655        C  0.69035418  0.99622077  0.12889568    -0.11300
C656        C  0.66282995  0.02340739  0.14172042     0.03400
C657        C  0.63470775  0.03518534  0.11605127    -0.10700
H658        H  0.65677183  0.98268044  0.03960913     0.09000
H659        H  0.71389322  0.98827836  0.14687308     0.06500
H660        H  0.61431320  0.05665145  0.12425992     0.06300
C661        C  0.38948440  0.97521918  0.89309753     0.03400
C662        C  0.36152264  0.95973453  0.91532745    -0.12800
C663        C  0.32514767  0.97531993  0.91806594     0.00900
C664        C  0.31568353  0.00628189  0.89443294    -0.11300
C665        C  0.34388345  0.02090440  0.86934770     0.03400
C666        C  0.38051188  0.00559777  0.87019649    -0.10700
H667        H  0.36800216  0.93468141  0.93099226     0.09000
H668        H  0.28709382  0.01788021  0.89473413     0.06500
H669        H  0.40236802  0.01789587  0.85289029     0.06300
C670        C  0.65760345  0.00839471  0.90778886     0.03400
C671        C  0.66684927  0.03744060  0.88428815    -0.12800
C672        C  0.70479488  0.04766372  0.87892291     0.00900
C673        C  0.73410609  0.02743055  0.89862705    -0.11300
C674        C  0.72372608  0.99768762  0.92319659     0.03400
C675        C  0.68528536  0.98960774  0.92774732    -0.10700
H676        H  0.64403498  0.05132685  0.86910956     0.09000
H677        H  0.76385818  0.03379687  0.89412244     0.06500
H678        H  0.67681977  0.96642304  0.94524941     0.06300
C679        C  0.39016388  0.73901456  0.08633651     0.03400
C680        C  0.37975133  0.71890658  0.11810208    -0.12800
C681        C  0.35145705  0.73254311  0.14255622     0.00900
C682        C  0.33196567  0.76658721  0.13290937    -0.11300
C683        C  0.34317667  0.78713295  0.10072079     0.03400
C684        C  0.37421612  0.77413047  0.08010971    -0.10700
H685        H  0.39328393  0.69214408  0.12332784     0.09000
H686        H  0.30744828  0.77582874  0.14895018     0.06500
H687        H  0.38403344  0.79057484  0.05670707     0.06300
C688        C  0.62647528  0.75727876  0.04747804     0.03400
C689        C  0.65462750  0.78300330  0.04033798    -0.12800
C690        C  0.68432029  0.78910501  0.06570386     0.00900
C691        C  0.68404183  0.76979705  0.10069680    -0.11300
C692        C  0.65431708  0.74383411  0.10888552     0.03400
C693        C  0.62666206  0.73726666  0.08102610    -0.10700
H694        H  0.65290153  0.79918554  0.01479371     0.09000
H695        H  0.70683430  0.77431745  0.12067758     0.06500
H696        H  0.60416400  0.71734246  0.08603321     0.06300
C697        C  0.89227737  0.30219752  0.16526893     0.03400
C698        C  0.86613719  0.28270581  0.18583989    -0.12800
C699        C  0.86111531  0.24503213  0.17943835     0.00900
C700        C  0.88193869  0.22635384  0.15041780    -0.11300
C701        C  0.90773952  0.24678924  0.12780675     0.03400
C702        C  0.91259116  0.28493660  0.13598872    -0.10700
H703        H  0.85120589  0.29664948  0.20869845     0.09000
H704        H  0.87911268  0.19650744  0.14640746     0.06500
H705        H  0.93347059  0.30088688  0.12064409     0.06300
C706        C  0.91540667  0.51694549  0.08561943     0.03400
C707        C  0.93008712  0.53829770  0.05724192    -0.12800
C708        C  0.90855639  0.56755362  0.04158449     0.00900
C709        C  0.87014275  0.57341290  0.05482323    -0.11300
C710        C  0.85463525  0.54889287  0.08252027     0.03400
C711        C  0.87731298  0.51980320  0.09532863    -0.10700
H712        H  0.95959209  0.53368172  0.04928195     0.09000
H713        H  0.85380685  0.59739897  0.04563586     0.06500
H714        H  0.86665075  0.50182663  0.11719954     0.06300
C715        C  0.92582387  0.00558142  0.42359188     0.03400
C716        C  0.89442176  0.02688279  0.41213896    -0.12800
C717        C  0.87017205  0.01366860  0.38389116     0.00900
C718        C  0.88176010  0.98083018  0.36345867    -0.11300
C719        C  0.91411635  0.95923367  0.37537066     0.03400
C720        C  0.93173797  0.96999484  0.40902118    -0.10700
H721        H  0.88951040  0.05416155  0.42466171     0.09000
H722        H  0.86735540  0.97425999  0.33751349     0.06500
H723        H  0.95555202  0.95372974  0.41974474     0.06300
C724        C  0.93276538  0.09247105  0.60332796     0.03400
C725        C  0.94257833  0.05641757  0.61470044    -0.12800
C726        C  0.92053889  0.03656101  0.64029861     0.00900
C727        C  0.88456148  0.05201322  0.65079548    -0.11300
C728        C  0.87257786  0.08754100  0.63679347     0.03400
C729        C  0.89757405  0.10766974  0.61401483    -0.10700
H730        H  0.96864704  0.04370793  0.60420516     0.09000
H731        H  0.86700178  0.03756581  0.67083218     0.06500
H732        H  0.88948626  0.13520553  0.60424529     0.06300
C733        C  0.06304956  0.68945041  0.40516457     0.03400
C734        C  0.09279440  0.66932531  0.38881894    -0.12800
C735        C  0.11238851  0.68394403  0.35831472     0.00900
C736        C  0.09875746  0.71730843  0.34117619    -0.11300
C737        C  0.06829247  0.73790351  0.35778448     0.03400
C738        C  0.05409600  0.72515233  0.39195882    -0.10700
H739        H  0.10040535  0.64198342  0.39939867     0.09000
H740        H  0.11045362  0.72576385  0.31458615     0.06500
H741        H  0.03230624  0.74153148  0.40622334     0.06300
C742        C  0.06436209  0.77000337  0.60079369     0.03400
C743        C  0.09870375  0.75189009  0.60873772    -0.12800
C744        C  0.12463563  0.76712259  0.63442571     0.00900
C745        C  0.11376406  0.80056595  0.65422324    -0.11300
C746        C  0.07853970  0.81912559  0.64551311     0.03400
C747        C  0.05633135  0.80455250  0.61636590    -0.10700
H748        H  0.10462471  0.72513675  0.59545449     0.09000
H749        H  0.13123200  0.81048360  0.67719063     0.06500
H750        H  0.02981307  0.81826194  0.60854739     0.06300
C751        C  0.85113253  0.31533665  0.94785702     0.03400
C752        C  0.88454410  0.29943885  0.96193118    -0.12800
C753        C  0.90518137  0.27227117  0.94162220     0.00900
C754        C  0.89328460  0.26421153  0.90386142    -0.11300
C755        C  0.86045057  0.28259956  0.88800274     0.03400
C756        C  0.84003767  0.30764283  0.91092229    -0.10700
H757        H  0.89327611  0.30651025  0.99024604     0.09000
H758        H  0.90794215  0.24264410  0.88796528     0.06500
H759        H  0.81478354  0.32130841  0.89984487     0.06300
C760        C  0.83517627  0.50305055  0.87499946     0.03400
C761        C  0.87149525  0.51414406  0.88648422    -0.12800
C762        C  0.89458593  0.53628340  0.86374355     0.00900
C763        C  0.88226122  0.54373166  0.82658350    -0.11300
C764        C  0.84660725  0.52981107  0.81342037     0.03400
C765        C  0.82375177  0.50942966  0.83811884    -0.10700
H766        H  0.88101137  0.50764122  0.91460566     0.09000
H767        H  0.89865776  0.56239358  0.80930693     0.06500
H768        H  0.79551091  0.50078728  0.82938382     0.06300
C769        C  0.81035299  0.78482589  0.37955468     0.03400
C770        C  0.79690767  0.75079446  0.36633114    -0.12800
C771        C  0.82022341  0.72747806  0.34430622     0.00900
C772        C  0.85682232  0.74128127  0.33276888    -0.11300
C773        C  0.87097771  0.77614509  0.34705439     0.03400
C774        C  0.84811696  0.79482750  0.37338376    -0.10700
H775        H  0.76794938  0.74280687  0.37294370     0.09000
H776        H  0.87308955  0.72580545  0.31204857     0.06500
H777        H  0.85881314  0.81963268  0.38738872     0.06300
C778        C  0.86294265  0.83612162  0.56843586     0.03400
C779        C  0.84508688  0.80307331  0.57921484    -0.12800
C780        C  0.85338871  0.78628523  0.61356421     0.00900
C781        C  0.87893164  0.80588281  0.63853540    -0.11300
C782        C  0.89836954  0.83918100  0.62662418     0.03400
C783        C  0.89218070  0.85099601  0.58984049    -0.10700
H784        H  0.82221993  0.79205592  0.56193849     0.09000
H785        H  0.88167264  0.79658784  0.66713358     0.06500
H786        H  0.90638557  0.87573642  0.57970607     0.06300
C787        C  0.37924919  0.78800520  0.89267098     0.03400
C788        C  0.35576957  0.80432749  0.91951880    -0.12800
C789        C  0.31758929  0.79410066  0.92273774     0.00900
C790        C  0.30353050  0.76499536  0.89912668    -0.11300
C791        C  0.32865828  0.74690724  0.87312536     0.03400
C792        C  0.36624184  0.75886288  0.87035865    -0.10700
H793        H  0.36681048  0.82697186  0.93669293     0.09000
H794        H  0.27369975  0.75749751  0.90006613     0.06500
H795        H  0.38502565  0.74665631  0.84938664     0.06300
C796        C  0.64313817  0.82574705  0.87190105     0.03400
C797        C  0.64739327  0.79378948  0.84971128    -0.12800
C798        C  0.68093187  0.77282732  0.85063601     0.00900
C799        C  0.71173865  0.78507098  0.87405762    -0.11300
C800        C  0.70771584  0.81844409  0.89601168     0.03400
C801        C  0.67299880  0.83780295  0.89444711    -0.10700
H802        H  0.62373431  0.78423485  0.83258002     0.09000
H803        H  0.73831379  0.76950278  0.87449524     0.06500
H804        H  0.66892924  0.86246279  0.91182173     0.06300
O805        O  0.30634639  0.64982469  0.76807156    -0.88100
C806        C  0.20154716  0.61982047  0.80577232     0.87900
Mg807      Mg  0.31011894  0.70626031  0.74999329     1.58100
O808        O  0.21946187  0.58496893  0.71708669    -0.87800
O809        O  0.30551324  0.59387911  0.74159577    -0.75200
C810        C  0.15908125  0.74383665  0.64380753     0.93000
O811        O  0.23826480  0.69652965  0.80790802    -0.75000
O812        O  0.19018325  0.75920056  0.65414936    -0.82500
Mg813      Mg  0.27620394  0.64477355  0.82022943     1.58000
C814        C  0.14595426  0.57995183  0.63371035     0.92900
O815        O  0.31565482  0.59241471  0.83335631    -0.80800
H816        H  0.24960615  0.55189895  0.68250999    -0.06100
C817        C  0.15408275  0.67772968  0.72052076     0.87800
O818        O  0.29754787  0.67244348  0.69199910    -0.75300
O819        O  0.23402101  0.61276981  0.79353803    -0.88000
O820        O  0.15134246  0.56841774  0.66700645    -0.80800
C821        C  0.16366795  0.53012515  0.78332885     0.93000
C822        C  0.31455638  0.55709954  0.82711018     0.92900
Mg823      Mg  0.19232440  0.65257145  0.65019652     1.58000
O824        O  0.15620936  0.70805135  0.64198174    -0.80800
O825        O  0.22693376  0.59784489  0.65768567    -0.75000
O826        O  0.19908808  0.53654933  0.78797453    -0.80800
O827        O  0.31428693  0.68480036  0.85281566    -0.82500
O828        O  0.28677917  0.75403959  0.67301386    -0.80900
C829        C  0.23257084  0.57698585  0.68584495     0.87300
O830        O  0.23810777  0.68195452  0.67257344    -0.88000
O831        O  0.17006356  0.65067959  0.70489609    -0.88100
O832        O  0.16961906  0.70987631  0.72282815    -0.75200
Mg833      Mg  0.25117922  0.56495117  0.76262272     1.58000
O834        O  0.14573582  0.54162487  0.75462327    -0.82500
H835        H  0.34951085  0.63007421  0.73696513    -0.06300
O836        O  0.25159589  0.71124843  0.74983319    -0.87800
H837        H  0.21447037  0.74073584  0.78095781    -0.06100
H838        H  0.27457271  0.64832513  0.64524255    -0.06300
C839        C  0.23405470  0.71731230  0.77938818     0.87300
C840        C  0.32188655  0.62475708  0.74912860     0.87900
C841        C  0.26955865  0.66625214  0.66923159     0.87900
H842        H  0.12632349  0.67383581  0.73295052    -0.06300
O843        O  0.17170912  0.61824126  0.78537188    -0.75300
Mg844      Mg  0.22686739  0.73329946  0.70046412     1.58000
H845        H  0.19868105  0.62927369  0.83446192    -0.06300
C846        C  0.31661747  0.71927462  0.84456697     0.92900
O847        O  0.32479404  0.70600689  0.68744581    -0.82500
C848        C  0.31796585  0.73519282  0.66798148     0.93000
O849        O  0.28836288  0.54204223  0.80776044    -0.82500
Mg850      Mg  0.16040154  0.59605640  0.72600514     1.58200
O851        O  0.31307700  0.73043031  0.81083856    -0.80800
O852        O  0.14687833  0.61479369  0.62601458    -0.82500
O853        O  0.82287901  0.66125022  0.69208103    -0.88100
C854        C  0.72408502  0.66764072  0.65500525     0.87900
Mg855      Mg  0.83300603  0.60720564  0.71648153     1.58100
O856        O  0.73819939  0.71722967  0.72937492    -0.87800
O857        O  0.81893383  0.72162467  0.70417102    -0.75200
C858        C  0.67425216  0.57717364  0.81895318     0.93000
O859        O  0.77281623  0.60345122  0.64559516    -0.75000
O860        O  0.69763736  0.55799424  0.79905972    -0.82500
Mg861      Mg  0.80454124  0.66031479  0.63624405     1.58000
C862        C  0.68284030  0.74014749  0.82466444     0.92900
O863        O  0.83808404  0.72049288  0.62718803    -0.80800
H864        H  0.77466158  0.75178840  0.75517565    -0.06100
C865        C  0.66703286  0.63493670  0.73548791     0.87800
O866        O  0.81938396  0.63160926  0.77420727    -0.75300
O867        O  0.75390273  0.68621675  0.65457159    -0.88000
O868        O  0.68174647  0.74636923  0.78930572    -0.80800
C869        C  0.66766327  0.72908033  0.64460224     0.93000
C870        C  0.82700674  0.75501881  0.62510012     0.92900
Mg871      Mg  0.71768268  0.66155790  0.80690038     1.58000
O872        O  0.67877748  0.61236839  0.82430310    -0.80800
O873        O  0.75456095  0.71066175  0.78824058    -0.75000
O874        O  0.69741482  0.75020178  0.64819076    -0.80800
O875        O  0.85478602  0.62431999  0.61671903    -0.82500
O876        O  0.79168104  0.55086589  0.78148143    -0.80900
C877        C  0.75640282  0.72771376  0.75727274     0.87300
O878        O  0.75693774  0.62656188  0.78085392    -0.88000
O879        O  0.67942266  0.66135522  0.75627545    -0.88100
O880        O  0.68603358  0.60514104  0.72858973    -0.75200
Mg881      Mg  0.75945353  0.73852276  0.67895159     1.58000
O882        O  0.66225324  0.70322821  0.66854765    -0.82500
H883        H  0.86392553  0.68881670  0.71975902    -0.06300
O884        O  0.77416056  0.59441001  0.70643679    -0.87800
H885        H  0.74870747  0.55874196  0.67100162    -0.06100
H886        H  0.79121731  0.64382798  0.82224696    -0.06300
C887        C  0.76439584  0.58441277  0.67450937     0.87300
C888        C  0.83644856  0.69017585  0.70601550     0.87900
C889        C  0.78909628  0.63359921  0.79375597     0.87900
H890        H  0.64002787  0.63893123  0.72133031    -0.06300
O891        O  0.69627491  0.67482094  0.67773478    -0.75300
Mg892      Mg  0.73958088  0.57720887  0.75291838     1.58000
H893        H  0.72000944  0.64609234  0.63409811    -0.06300
C894        C  0.85298058  0.58940824  0.62391067     0.92900
O895        O  0.84670125  0.55412615  0.75040182    -0.82500
C896        C  0.82754890  0.54459710  0.77917926     0.93000
O897        O  0.79204320  0.76361734  0.63068182    -0.82500
Mg898      Mg  0.67991975  0.71647427  0.72995736     1.58200
O899        O  0.84538182  0.57817978  0.65711605    -0.80800
O900        O  0.68386556  0.70691514  0.83750636    -0.82500
O901        O  0.72426937  0.68970383  0.25467393    -0.88100
C902        C  0.74402996  0.58370553  0.27823883     0.87900
Mg903      Mg  0.67547578  0.69150462  0.22443257     1.58100
O904        O  0.80323409  0.61005614  0.20885016    -0.87800
O905        O  0.78672223  0.68948385  0.24349884    -0.75200
C906        C  0.66022620  0.54269932  0.12988497     0.93000
O907        O  0.66726263  0.61938442  0.27397744    -0.75000
O908        O  0.65209874  0.55999301  0.16045388    -0.82500
Mg909      Mg  0.71721008  0.65348478  0.30090083     1.58000
C910        C  0.82054036  0.55592782  0.10687813     0.92900
O911        O  0.76621797  0.69067679  0.32611958    -0.80800
H912        H  0.83830121  0.64658789  0.18465251    -0.06100
C913        C  0.71361735  0.55017166  0.19513879     0.87800
O914        O  0.71780212  0.68999696  0.17947119    -0.75300
O915        O  0.75509858  0.61632963  0.27621662    -0.88000
O916        O  0.82628452  0.55545739  0.14247282    -0.80800
C917        C  0.81637166  0.54210866  0.29187718     0.93000
C918        C  0.80269603  0.69222260  0.32932912     0.92900
Mg919      Mg  0.74386195  0.59242502  0.12847968     1.58000
O920        O  0.68843531  0.55394962  0.10958136    -0.80800
O921        O  0.79739361  0.62594204  0.14971168    -0.75000
O922        O  0.83202139  0.57454406  0.29285004    -0.80800
O923        O  0.66969193  0.68663713  0.32729277    -0.82500
O924        O  0.64916833  0.68369829  0.13580841    -0.80900
C925        C  0.81400992  0.62839209  0.18154923     0.87300
O926        O  0.71358811  0.63261653  0.15849779    -0.88000
O927        O  0.74296939  0.55960678  0.17827645    -0.88100
O928        O  0.68145366  0.56800075  0.19188013    -0.75200
Mg929      Mg  0.81136762  0.63267532  0.26428407     1.58000
O930        O  0.79301802  0.53363729  0.26531951    -0.82500
H931        H  0.75184047  0.73428217  0.23507777    -0.06300
O932        O  0.65482763  0.64025503  0.21732541    -0.87800
H933        H  0.62497564  0.59910696  0.24061472    -0.06100
H934        H  0.74616890  0.67099923  0.13381935    -0.06300
C935        C  0.64788049  0.61895890  0.24362935     0.87300
C936        C  0.75401921  0.70579682  0.24468623     0.87900
C937        C  0.72664112  0.66452163  0.15615710     0.87900
H938        H  0.71435547  0.52515828  0.21186268    -0.06300
O939        O  0.75708306  0.55760318  0.25664371    -0.75300
Mg940      Mg  0.65673569  0.62337694  0.15977462     1.58000
H941        H  0.72409062  0.57641493  0.29997985    -0.06300
C942        C  0.63877032  0.69707505  0.31154563     0.92900
O943        O  0.66113718  0.73014726  0.17624001    -0.82500
C944        C  0.65413445  0.71852165  0.14259607     0.93000
O945        O  0.82380980  0.66535405  0.31798240    -0.82500
Mg946      Mg  0.79783600  0.55238749  0.20238291     1.58200
O947        O  0.63668392  0.70254644  0.27565951    -0.80800
O948        O  0.78673857  0.55832737  0.09375546    -0.82500
O949        O  0.75770106  0.15547945  0.69792322    -0.88100
C950        C  0.76664980  0.10013619  0.78848162     0.87900
Mg951      Mg  0.80267977  0.19115333  0.68227414     1.58100
O952        O  0.70113861  0.16897492  0.78764558    -0.87800
O953        O  0.69634118  0.15563483  0.71227718    -0.75200
C954        C  0.84156244  0.27188388  0.85123705     0.93000
O955        O  0.82807283  0.11713103  0.73503526    -0.75000
O956        O  0.86075330  0.26557029  0.82116888    -0.82500
Mg957      Mg  0.77064626  0.09837129  0.70750726     1.58000
C958        C  0.67832906  0.25092792  0.86016782     0.92900
O959        O  0.71061236  0.08117095  0.67613766    -0.80800
H960        H  0.65887320  0.19558696  0.76052123    -0.06100
C961        C  0.79847849  0.18254679  0.84310278     0.87800
O962        O  0.76996592  0.24177678  0.70594213    -0.75300
O963        O  0.74558495  0.10466189  0.76087616    -0.88000
O964        O  0.67808821  0.21559386  0.85498827    -0.80800
C965        C  0.71054720  0.07858189  0.85151000     0.93000
C966        C  0.67769747  0.09768254  0.67678372     0.92900
Mg967      Mg  0.75210347  0.25115750  0.81549763     1.58000
O968        O  0.80511875  0.26858778  0.85143960    -0.80800
O969        O  0.69941034  0.23015827  0.78176068    -0.75000
O970        O  0.68695907  0.08255830  0.82412377    -0.80800
O971        O  0.80657704  0.08852392  0.65517204    -0.82500
O972        O  0.85307031  0.26582850  0.71942922    -0.80900
C973        C  0.68525538  0.19783918  0.77608988     0.87300
O974        O  0.78417868  0.23883726  0.76636072    -0.88000
O975        O  0.76646733  0.19602762  0.83543517    -0.88100
O976        O  0.82806748  0.18709923  0.82263424    -0.75200
Mg977      Mg  0.68732465  0.11506709  0.76549203     1.58000
O978        O  0.73756141  0.10222421  0.85528148    -0.82500
H979        H  0.71974050  0.18771412  0.67127264    -0.06300
O980        O  0.83028977  0.17898354  0.73436527    -0.87800
H981        H  0.87280717  0.14740561  0.75465976    -0.06100
H982        H  0.75477521  0.28201954  0.74351053    -0.06300
C983        C  0.84492761  0.14809994  0.74166913     0.87300
C984        C  0.72489748  0.16760069  0.69314299     0.87900
C985        C  0.76966731  0.25587582  0.73870373     0.87900
H986        H  0.80100919  0.16479790  0.86733670    -0.06300
O987        O  0.76089412  0.11721574  0.81991447    -0.75300
Mg988      Mg  0.84379379  0.22406850  0.77185841     1.58000
H989        H  0.79003721  0.08037887  0.78649956    -0.06300
C990        C  0.83718714  0.10684637  0.65003460     0.92900
O991        O  0.84538439  0.23486940  0.66503911    -0.82500
C992        C  0.85140756  0.26515776  0.68315029     0.93000
O993        O  0.67044373  0.12220731  0.70229877    -0.82500
Mg994      Mg  0.71673714  0.16367455  0.84415036     1.58200
O995        O  0.83908754  0.14171519  0.65807418    -0.80800
O996        O  0.70955000  0.26879937  0.86009125    -0.82500
C997        C  0.16541232  0.29276105  0.95785734     0.03400
C998        C  0.17826535  0.28557962  0.92143520    -0.12800
C999        C  0.15971491  0.26070648  0.89721798     0.00900
C1000       C  0.12464577  0.24450731  0.90952167    -0.11300
C1001       C  0.10979381  0.25350505  0.94597406     0.03400
C1002       C  0.13069211  0.27790368  0.96908684    -0.10700
H1003       H  0.20393316  0.29904766  0.91172084     0.09000
H1004       H  0.11043667  0.22394595  0.89216906     0.06500
H1005       H  0.12030713  0.28411267  0.99701534     0.06300
C1006       C  0.15070729  0.47799156  0.87227186     0.03400
C1007       C  0.16316347  0.48685980  0.83645475    -0.12800
C1008       C  0.14309164  0.51289203  0.81480742     0.00900
C1009       C  0.10955371  0.52985231  0.82973513    -0.11300
C1010       C  0.09673903  0.52055363  0.86606257     0.03400
C1011       C  0.11654862  0.49293281  0.88587519    -0.10700
H1012       H  0.19041819  0.47599417  0.82680743     0.09000
H1013       H  0.09575885  0.55249154  0.81486942     0.06500
H1014       H  0.10741087  0.48582579  0.91390955     0.06300
O1015       O  0.25339723  0.21679156  0.79366494    -0.88100
C1016       C  0.25616121  0.11337691  0.83312761     0.87900
Mg1017     Mg  0.20077265  0.23312401  0.77079512     1.58100
O1018       O  0.32598786  0.12184588  0.76468805    -0.87800
O1019       O  0.31182375  0.19658998  0.78045092    -0.75200
C1020       C  0.17625833  0.09253166  0.65355816     0.93000
O1021       O  0.19159960  0.16708206  0.83286050    -0.75000
O1022       O  0.15764565  0.12074982  0.66584486    -0.82500
Mg1023     Mg  0.25077325  0.19410268  0.84659083     1.58000
C1024       C  0.33985163  0.06557759  0.67343967     0.92900
O1025       O  0.31246757  0.22586014  0.85723943    -0.80800
H1026       H  0.36637451  0.15338511  0.74162873    -0.06100
C1027       C  0.22313584  0.07682005  0.73935823     0.87800
O1028       O  0.22967367  0.22555833  0.71219454    -0.75300
O1029       O  0.27265110  0.14284670  0.82509868    -0.88000
O1030       O  0.33943523  0.05951119  0.70906501    -0.80800
C1031       C  0.33711355  0.05056880  0.84045300     0.93000
C1032       C  0.34116167  0.22926908  0.83479108     0.92900
Mg1033     Mg  0.26606140  0.12074708  0.68111293     1.58000
O1034       O  0.21273072  0.09013086  0.65645446    -0.80800
O1035       O  0.32013694  0.14606658  0.70805546    -0.75000
O1036       O  0.33222382  0.08465201  0.85057891    -0.80800
O1037       O  0.21894381  0.24408729  0.86944128    -0.82500
O1038       O  0.15570235  0.21182464  0.69079918    -0.80900
C1039       C  0.33902318  0.14003699  0.73811783     0.87300
O1040       O  0.23043467  0.16500452  0.70222504    -0.88000
O1041       O  0.25423478  0.09045653  0.73005057    -0.88100
O1042       O  0.19203503  0.09556995  0.74006558    -0.75200
Mg1043     Mg  0.33038858  0.14389452  0.81997520     1.58000
O1044       O  0.33946921  0.04190972  0.80559418    -0.82500
H1045       H  0.28501804  0.23916542  0.75311015    -0.06300
O1046       O  0.18570951  0.17703645  0.77242752    -0.87800
H1047       H  0.14640813  0.14920446  0.80160784    -0.06100
H1048       H  0.25208229  0.20103110  0.66548262    -0.06300
C1049       C  0.17338265  0.16363581  0.80193908     0.87300
C1050       C  0.28267081  0.21799394  0.77431132     0.87900
C1051       C  0.23811949  0.19707328  0.69209352     0.87900
H1052       H  0.22279238  0.04833776  0.74914533    -0.06300
O1053       O  0.26101006  0.08337190  0.81407435    -0.75300
Mg1054     Mg  0.17334974  0.15309044  0.71841048     1.58000
H1055       H  0.23724453  0.11302112  0.85697653    -0.06300
C1056       C  0.18314533  0.24819589  0.86391199     0.92900
O1057       O  0.14755596  0.24862138  0.74042139    -0.82500
C1058       C  0.14660952  0.24362339  0.70506005     0.93000
O1059       O  0.34509052  0.20577748  0.80780455    -0.82500
Mg1060     Mg  0.29902890  0.06910712  0.76248029     1.58200
O1061       O  0.16906157  0.24244344  0.83111363    -0.80800
O1062       O  0.31047062  0.07884704  0.65663961    -0.82500
O1063       O  0.21312166  0.60068546  0.29772246    -0.88100
C1064       C  0.17413000  0.60755606  0.20050857     0.87900
Mg1065     Mg  0.23649102  0.64948020  0.32065887     1.58100
O1066       O  0.25156514  0.53952374  0.20227246    -0.87800
O1067       O  0.22911897  0.54549707  0.27591655    -0.75200
C1068       C  0.33882405  0.70759469  0.17380713     0.93000
O1069       O  0.16462613  0.66349442  0.25910634    -0.75000
O1070       O  0.32187501  0.72185604  0.20225982    -0.82500
Mg1071     Mg  0.15684237  0.60248603  0.28014948     1.58000
C1072       C  0.34155827  0.54446412  0.14901530     0.92900
O1073       O  0.15375133  0.54034346  0.30558355    -0.80800
H1074       H  0.28280556  0.50896493  0.23788536    -0.06100
C1075       C  0.25825798  0.65117331  0.15649324     0.87800
O1076       O  0.29636053  0.62794489  0.30540245    -0.75300
O1077       O  0.17452178  0.58541378  0.22682550    -0.88000
O1078       O  0.30503258  0.54103966  0.14437011    -0.80800
C1079       C  0.17025784  0.54676482  0.12844379     0.93000
C1080       C  0.16260257  0.50616345  0.29774850     0.92900
Mg1081     Mg  0.32643538  0.61459533  0.19814394     1.58000
O1082       O  0.34319210  0.67197049  0.16998302    -0.80800
O1083       O  0.30750095  0.55813328  0.22426905    -0.75000
O1084       O  0.16696502  0.53533290  0.16314458    -0.80800
O1085       O  0.13598574  0.62697046  0.33398470    -0.82500
O1086       O  0.30193896  0.71232375  0.29532461    -0.80900
C1087       C  0.28057247  0.53432220  0.22178866     0.87300
O1088       O  0.29969151  0.64154231  0.24512318    -0.88000
O1089       O  0.27564890  0.62194253  0.16517644    -0.88100
O1090       O  0.25163634  0.67796550  0.17965000    -0.75200
Mg1091     Mg  0.19801965  0.53669537  0.22231821     1.58000
O1092       O  0.20239679  0.55970230  0.11701795    -0.82500
H1093       H  0.24882640  0.56667696  0.32514531    -0.06300
O1094       O  0.22613524  0.67413806  0.26667945    -0.87800
H1095       H  0.19019729  0.71243706  0.24574616    -0.06100
H1096       H  0.34448560  0.62077271  0.27460518    -0.06300
C1097       C  0.19378385  0.68461623  0.25677705     0.87300
C1098       C  0.23101527  0.57102107  0.30080180     0.87900
C1099       C  0.31516283  0.63034618  0.27518488     0.87900
H1100       H  0.24585645  0.65284816  0.12880832    -0.06300
O1101       O  0.19954498  0.60665025  0.17518939    -0.75300
Mg1102     Mg  0.27409422  0.69636188  0.23795884     1.58000
H1103       H  0.15155552  0.62817453  0.19874723    -0.06300
C1104       C  0.14329493  0.66081076  0.34221963     0.92900
O1105       O  0.26909787  0.69778229  0.34665836    -0.82500
C1106       C  0.29841247  0.71160950  0.33110963     0.93000
O1107       O  0.17536212  0.49697926  0.26493917    -0.82500
Mg1108     Mg  0.24975745  0.57256448  0.15769975     1.58200
O1109       O  0.17658009  0.67440845  0.33766109    -0.80800
O1110       O  0.35648018  0.57604877  0.15694410    -0.82500
O1111       O  0.76257462  0.14965570  0.21006311    -0.88100
C1112       C  0.76497428  0.19837963  0.31158413     0.87900
Mg1113     Mg  0.71641213  0.11860532  0.19049472     1.58100
O1114       O  0.82594713  0.12193905  0.30401797    -0.87800
O1115       O  0.82428444  0.14114458  0.22050725    -0.75200
C1116       C  0.67621203  0.02613948  0.34211687     0.93000
O1117       O  0.69402176  0.18203196  0.26046790    -0.75000
O1118       O  0.66213889  0.02584002  0.30902907    -0.82500
Mg1119     Mg  0.74876599  0.20319568  0.23324539     1.58000
C1120       C  0.83651978  0.03735020  0.37279534     0.92900
O1121       O  0.80221823  0.22182854  0.20073941    -0.80800
H1122       H  0.86841078  0.09549594  0.27706956    -0.06100
C1123       C  0.72323195  0.10848264  0.34651119     0.87800
O1124       O  0.74937457  0.06468321  0.20580131    -0.75300
O1125       O  0.77902096  0.18699058  0.28169228    -0.88000
O1126       O  0.83946398  0.07314232  0.37281449    -0.80800
C1127       C  0.84981651  0.20110197  0.36707361     0.93000
C1128       C  0.83755580  0.22656647  0.20741184     0.92900
Mg1129     Mg  0.76752364  0.04228967  0.31533084     1.58000
O1130       O  0.71209477  0.02877264  0.34751265    -0.80800
O1131       O  0.82355919  0.06203693  0.28882473    -0.75000
O1132       O  0.84606579  0.20761147  0.33199066    -0.80800
O1133       O  0.70901274  0.22471450  0.18745902    -0.82500
O1134       O  0.67161308  0.03700514  0.20985711    -0.80900
C1135       C  0.84067074  0.09337541  0.28999965     0.87300
O1136       O  0.73815526  0.05768469  0.26589468    -0.88000
O1137       O  0.75547891  0.09602238  0.33813304    -0.88100
O1138       O  0.69375067  0.10401822  0.32569510    -0.75200
Mg1139     Mg  0.83685835  0.17204627  0.27597426     1.58000
O1140       O  0.84809279  0.16774600  0.37955028    -0.82500
H1141       H  0.79682488  0.12284494  0.17384373    -0.06300
O1142       O  0.69209927  0.12268726  0.24356064    -0.87800
H1143       H  0.64981517  0.14780361  0.27198708    -0.06100
H1144       H  0.76932272  0.02096229  0.23622470    -0.06300
C1145       C  0.67724681  0.15064163  0.25857789     0.87300
C1146       C  0.79448165  0.13776507  0.20018486     0.87900
C1147       C  0.75275084  0.04653923  0.23619867     0.87900
H1148       H  0.72011081  0.12431741  0.37224221    -0.06300
O1149       O  0.76881766  0.18050408  0.34209602    -0.75300
Mg1150     Mg  0.68008645  0.07234170  0.26983543     1.58000
H1151       H  0.74834844  0.22392798  0.31161201    -0.06300
C1152       C  0.68048387  0.20610108  0.17599896     0.92900
O1153       O  0.66938912  0.08309032  0.16872908    -0.82500
C1154       C  0.66817986  0.04842441  0.17568526     0.93000
O1155       O  0.85213958  0.22010718  0.23941841    -0.82500
Mg1156     Mg  0.80252555  0.12717925  0.35797659     1.58200
O1157       O  0.68089597  0.17051671  0.17630256    -0.80800
O1158       O  0.80567222  0.02156121  0.36264581    -0.82500
C1159       C  0.16732375  0.91545464  0.40287116     0.03400
C1160       C  0.13307886  0.90236455  0.38789794    -0.12800
C1161       C  0.11119845  0.92329206  0.36228751     0.00900
C1162       C  0.12442960  0.96043665  0.35395658    -0.11300
C1163       C  0.15776016  0.97547259  0.37208191     0.03400
C1164       C  0.17846669  0.95208297  0.39577141    -0.10700
H1165       H  0.12337433  0.87510473  0.39640770     0.09000
H1166       H  0.10983461  0.97704121  0.33313498     0.06500
H1167       H  0.20326405  0.96317478  0.41006593     0.06300
C1168       C  0.15931359  0.00641240  0.59650698     0.03400
C1169       C  0.12520655  0.99276992  0.61097650    -0.12800
C1170       C  0.10795728  0.00918674  0.64275343     0.00900
C1171       C  0.12341066  0.04370604  0.65587396    -0.11300
C1172       C  0.15544313  0.06009153  0.63761405     0.03400
C1173       C  0.17318694  0.04062921  0.60845525    -0.10700
H1174       H  0.11439357  0.96667021  0.59977512     0.09000
H1175       H  0.11318671  0.05624498  0.68156335     0.06500
H1176       H  0.19967392  0.05078335  0.59680716     0.06300
O1177       O  0.18654450  0.12919193  0.27745709    -0.88100
C1178       C  0.28372382  0.18776017  0.27925671     0.87900
Mg1179     Mg  0.17218861  0.09203981  0.32123140     1.58100
O1180       O  0.28434158  0.11524319  0.21519981    -0.87800
O1181       O  0.19743611  0.12609380  0.21651548    -0.75200
C1182       C  0.34421380  0.01289527  0.35098626     0.93000
O1183       O  0.23311485  0.16307595  0.34538837    -0.75000
O1184       O  0.31270587  0.01487279  0.36904752    -0.82500
Mg1185     Mg  0.20333470  0.18402720  0.29179207     1.58000
C1186       C  0.35972934  0.04182615  0.19315918     0.92900
O1187       O  0.16950320  0.20281772  0.23727875    -0.80800
H1188       H  0.25716546  0.09003762  0.17273334    -0.06100
C1189       C  0.33430919  0.09886908  0.31156335     0.87800
O1190       O  0.19585317  0.04367868  0.28512241    -0.75300
O1191       O  0.25498914  0.17564747  0.26283540    -0.88000
O1192       O  0.35695463  0.07735053  0.19689535    -0.80800
C1193       C  0.33985789  0.20132188  0.19595638     0.93000
C1194       C  0.17672441  0.20984680  0.20283414     0.92900
Mg1195     Mg  0.30715794  0.03263003  0.26429051     1.58000
O1196       O  0.34512865  0.01644025  0.31533714    -0.80800
O1197       O  0.27437480  0.05434307  0.21328988    -0.75000
O1198       O  0.30332729  0.20179328  0.19691522    -0.80800
O1199       O  0.15368887  0.19625185  0.33029791    -0.82500
O1200       O  0.21211896  0.01510498  0.36401808    -0.80900
C1201       C  0.27205684  0.08682028  0.19906476     0.87300
O1202       O  0.25786387  0.04093527  0.29691105    -0.88000
O1203       O  0.32424868  0.08731706  0.28013557    -0.88100
O1204       O  0.31484314  0.09356266  0.34111328    -0.75200
Mg1205     Mg  0.25093873  0.16198103  0.20534596     1.58000
O1206       O  0.35861308  0.17109470  0.20046430    -0.82500
H1207       H  0.15233961  0.10172034  0.24191574    -0.06300
O1208       O  0.22688587  0.10169250  0.34470718    -0.87800
H1209       H  0.25098324  0.12936512  0.38743227    -0.06100
H1210       H  0.23133751  0.00385290  0.26391741    -0.06300
C1211       C  0.23706213  0.13108476  0.36045580     0.87300
C1212       C  0.17751737  0.11866081  0.24538682     0.87900
C1213       C  0.22862488  0.02822612  0.28179951     0.87900
H1214       H  0.35966501  0.11576725  0.31361702    -0.06300
O1215       O  0.31651805  0.17239779  0.27602863    -0.75300
Mg1216     Mg  0.26394526  0.05622502  0.35419032     1.58000
H1217       H  0.28056583  0.21149449  0.29792326    -0.06300
C1218       C  0.14829028  0.17848112  0.36060443     0.92900
O1219       O  0.15477455  0.04264915  0.35997558    -0.82500
C1220       C  0.17538257  0.01329722  0.36488950     0.93000
O1221       O  0.21019458  0.20694122  0.18967937    -0.82500
Mg1222     Mg  0.33909971  0.12445834  0.23858656     1.58200
O1223       O  0.15206186  0.14258500  0.36187108    -0.80800
O1224       O  0.35357243  0.02021502  0.22069068    -0.82500
C1225       C  0.18840401  0.89397710  0.43162854    -0.19600
C1226       C  0.22832368  0.89761600  0.43534068     0.36600
C1227       C  0.24429844  0.89898665  0.47132814    -0.25600
C1228       C  0.22019793  0.89715318  0.50251230     0.03000
C1229       C  0.18372186  0.88144855  0.49782663     0.27800
C1230       C  0.16764025  0.88049716  0.46206969    -0.24700
N1231       N  0.25154698  0.90446026  0.40319937    -0.82100
H1232       H  0.27327898  0.90878869  0.47473094     0.13600
C1233       C  0.22135737  0.92867832  0.52916531     0.03000
N1234       N  0.16011939  0.87447941  0.52968537    -0.80700
H1235       H  0.13731834  0.87543123  0.45964231     0.18500
C1236       C  0.21146017  0.96387356  0.51448469    -0.25500
C1237       C  0.19207927  0.99028082  0.53642738     0.36500
C1238       C  0.18383508  0.98188200  0.57373816    -0.19600
C1239       C  0.19893018  0.94927045  0.58981973    -0.24800
C1240       C  0.21764178  0.92249120  0.56767389     0.27900
H1241       H  0.21425916  0.96904319  0.48475984     0.13600
N1242       N  0.17841363  0.02427103  0.52013479    -0.82100
H1243       H  0.19469463  0.94376747  0.61920322     0.18500
N1244       N  0.23009244  0.88789003  0.58354990    -0.80700
H1245       H  0.20189108  0.03865634  0.50969863     0.34100
H1246       H  0.16070460  0.01739792  0.49754644     0.38600
H1247       H  0.24970680  0.89397360  0.60479421     0.34100
H1248       H  0.20655456  0.87514491  0.59586101     0.30800
H1249       H  0.13655225  0.89253938  0.52868514     0.34100
H1250       H  0.15015708  0.84710999  0.52756038     0.30800
H1251       H  0.27262179  0.88367335  0.40204492     0.38600
H1252       H  0.26520312  0.93007494  0.40702112     0.34100
C1253       C  0.17586626  0.45747639  0.89791965    -0.19600
C1254       C  0.18577423  0.42018073  0.89078840     0.36600
C1255       C  0.20485027  0.39991952  0.91835041    -0.25600
C1256       C  0.21293363  0.41600409  0.95364596     0.03000
C1257       C  0.20614099  0.45433708  0.95934263     0.27800
C1258       C  0.18786491  0.47490905  0.93127919    -0.24700
N1259       N  0.17377151  0.40201089  0.85692366    -0.82100
H1260       H  0.20951743  0.37035780  0.91345615     0.13600
C1261       C  0.21660083  0.38999189  0.98535621     0.03000
N1262       N  0.21581177  0.47188729  0.99418992    -0.80700
H1263       H  0.18117114  0.50407885  0.93637449     0.18500
C1264       C  0.24159789  0.35964567  0.98011716    -0.25500
C1265       C  0.22659224  0.32349324  0.97812545     0.36500
C1266       C  0.18673195  0.31923064  0.98224485    -0.19600
C1267       C  0.16635011  0.34754873  0.00109534    -0.24800
C1268       C  0.18217610  0.38313798  0.00414970     0.27900
H1269       H  0.26973111  0.36445658  0.96911178     0.13600
N1270       N  0.25017113  0.29236478  0.96696284    -0.82100
H1271       H  0.13658582  0.34423619  0.00818779     0.18500
N1272       N  0.16005419  0.41339984  0.01931956    -0.80700
H1273       H  0.27843294  0.30080696  0.96359631     0.34100
H1274       H  0.25006348  0.27322628  0.98889036     0.38600
H1275       H  0.13415204  0.41480913  0.00480406     0.34100
H1276       H  0.15409700  0.40727811  0.04726240     0.30800
H1277       H  0.23452841  0.49370145  0.98855400     0.34100
H1278       H  0.19097535  0.48356759  0.00563608     0.30800
H1279       H  0.15643150  0.37954840  0.86409164     0.38600
H1280       H  0.19801526  0.39128202  0.84352919     0.34100
C1281       C  0.60542712  0.84331641  0.87498482    -0.19600
C1282       C  0.58733979  0.84578565  0.91015490     0.36600
C1283       C  0.54797714  0.85069460  0.91154615    -0.25600
C1284       C  0.52672936  0.85076594  0.87839211     0.03000
C1285       C  0.54493039  0.85372596  0.84366352     0.27800
C1286       C  0.58457651  0.85033065  0.84215209    -0.24700
N1287       N  0.60792290  0.83863287  0.94409595    -0.82100
H1288       H  0.53358331  0.84864576  0.93828945     0.13600
C1289       C  0.48880041  0.83469987  0.87994724     0.03000
N1290       N  0.52303360  0.85668807  0.80990474    -0.80700
H1291       H  0.59861463  0.84949667  0.81515068     0.18500
C1292       C  0.45673781  0.85638668  0.87176589    -0.25500
C1293       C  0.42046054  0.84100436  0.87467070     0.36500
C1294       C  0.41673837  0.80369013  0.88614656    -0.19600
C1295       C  0.44891989  0.78143811  0.89232854    -0.24800
C1296       C  0.48509788  0.79669492  0.88910122     0.27900
H1297       H  0.45992122  0.88502035  0.86322555     0.13600
N1298       N  0.38744531  0.86296567  0.86560646    -0.82100
H1299       H  0.44590483  0.75245887  0.90024962     0.18500
N1300       N  0.51817821  0.77367608  0.89495074    -0.80700
H1301       H  0.38717025  0.88648147  0.88309400     0.34100
H1302       H  0.39018574  0.87205140  0.83800854     0.38600
H1303       H  0.51673958  0.76280806  0.92194673     0.34100
H1304       H  0.51719851  0.75136597  0.87592014     0.30800
H1305       H  0.53179709  0.88068863  0.79598347     0.34100
H1306       H  0.52950584  0.83364341  0.79285930     0.30800
H1307       H  0.59613786  0.81518568  0.95674805     0.38600
H1308       H  0.60404445  0.86152218  0.96207258     0.34100
C1309       C  0.78617983  0.81087720  0.40101467    -0.19600
C1310       C  0.77511506  0.80156049  0.43735973     0.36600
C1311       C  0.76894363  0.83014128  0.46344661    -0.25600
C1312       C  0.77752479  0.86738439  0.45428821     0.03000
C1313       C  0.78131109  0.87695810  0.41647142     0.27800
C1314       C  0.78471149  0.84840259  0.38968379    -0.24700
N1315       N  0.77568844  0.76344993  0.44924124    -0.82100
H1316       H  0.76506761  0.82227918  0.49241544     0.13600
C1317       C  0.79964487  0.88778956  0.48291163     0.03000
N1318       N  0.78709748  0.91505743  0.40619871    -0.80700
H1319       H  0.79199153  0.85559943  0.36120778     0.18500
C1320       C  0.83944584  0.88454614  0.47806151    -0.25500
C1321       C  0.86184319  0.86891621  0.50650421     0.36500
C1322       C  0.84444397  0.86011555  0.54060095    -0.19600
C1323       C  0.80757543  0.87361294  0.54827464    -0.24800
C1324       C  0.78519466  0.88844671  0.51952650     0.27900
H1325       H  0.85167710  0.88634150  0.45028983     0.13600
N1326       N  0.90087447  0.85903475  0.49960936    -0.82100
H1327       H  0.79510747  0.86967287  0.57568909     0.18500
N1328       N  0.74609823  0.89810707  0.52614773    -0.80700
H1329       H  0.91536580  0.88334122  0.49239013     0.34100
H1330       H  0.90175337  0.84084898  0.47656392     0.38600
H1331       H  0.73258566  0.87497537  0.53770853     0.34100
H1332       H  0.74542330  0.91961357  0.54610473     0.30800
H1333       H  0.81380087  0.91703129  0.39340376     0.34100
H1334       H  0.76634661  0.92215073  0.38637442     0.30800
H1335       H  0.79589870  0.76080461  0.47066555     0.38600
H1336       H  0.74891565  0.75735154  0.46035190     0.34100
C1337       C  0.82857325  0.34213118  0.97074877    -0.19600
C1338       C  0.78834169  0.34127233  0.97115086     0.36600
C1339       C  0.76791670  0.37424184  0.97917001    -0.25600
C1340       C  0.78781883  0.40793921  0.98288336     0.03000
C1341       C  0.82645389  0.40561269  0.99441584     0.27800
C1342       C  0.84699812  0.37274452  0.98711454    -0.24700
N1343       N  0.76845546  0.30805294  0.96046420    -0.82100
H1344       H  0.73736962  0.37479148  0.97445282     0.13600
C1345       C  0.77779340  0.43892887  0.95681570     0.03000
N1346       N  0.84608340  0.43771199  0.00862326    -0.80700
H1347       H  0.87776104  0.37290642  0.99009415     0.18500
C1348       C  0.78896757  0.47530108  0.96638362    -0.25500
C1349       C  0.80552360  0.49826198  0.93938614     0.36500
C1350       C  0.80907703  0.48524156  0.90207488    -0.19600
C1351       C  0.78927286  0.45314794  0.89130874    -0.24800
C1352       C  0.77269279  0.43036496  0.91824890     0.27900
H1353       H  0.79004741  0.48381440  0.99555030     0.13600
N1354       N  0.82028412  0.53386168  0.95034694    -0.82100
H1355       H  0.78927364  0.44389933  0.86235428     0.18500
N1356       N  0.75368403  0.39707102  0.90624033    -0.80700
H1357       H  0.84045206  0.52959799  0.97154433     0.34100
H1358       H  0.79789221  0.54973822  0.96162130     0.38600
H1359       H  0.73104202  0.40480848  0.88876730     0.34100
H1360       H  0.77282497  0.38087546  0.89050589     0.30800
H1361       H  0.85759409  0.43092286  0.03475062     0.34100
H1362       H  0.86865506  0.44365923  0.99059248     0.30800
H1363       H  0.75044922  0.30086417  0.98250838     0.38600
H1364       H  0.75137952  0.31415639  0.93722984     0.34100
C1365       C  0.03452441  0.75091837  0.57955822    -0.19600
C1366       C  0.02006256  0.76597795  0.54627663     0.36600
C1367       C  0.99701917  0.74384333  0.52348333    -0.25600
C1368       C  0.99096805  0.70619060  0.53260001     0.03000
C1369       C  0.99800921  0.69440456  0.56938799     0.27800
C1370       C  0.02083284  0.71670217  0.59257314    -0.24700
N1371       N  0.03173684  0.80206868  0.53385917    -0.82100
H1372       H  0.99044974  0.75397537  0.49569697     0.13600
C1373       C  0.99838281  0.67970885  0.50173591     0.03000
N1374       N  0.98676134  0.65776492  0.58065634    -0.80700
H1375       H  0.03008190  0.70639921  0.61958416     0.18500
C1376       C  0.03505987  0.66327704  0.50191141    -0.25500
C1377       C  0.05672259  0.66218574  0.46918390     0.36500
C1378       C  0.03980404  0.67401517  0.43559482    -0.19600
C1379       C  0.00015987  0.68019249  0.43431848    -0.24800
C1380       C  0.97962485  0.68493354  0.46743161     0.27900
H1381       H  0.04969606  0.65819702  0.52816947     0.13600
N1382       N  0.09673139  0.65396481  0.47123364    -0.82100
H1383       H  0.98639242  0.68726994  0.40818118     0.18500
N1384       N  0.94178519  0.70036914  0.46643442    -0.80700
H1385       H  0.10926719  0.67297223  0.48983051     0.34100
H1386       H  0.10010789  0.62727760  0.48240925     0.38600
H1387       H  0.94279703  0.72590655  0.45249199     0.34100
H1388       H  0.92457752  0.68258715  0.45051115     0.30800
H1389       H  0.99460464  0.65321456  0.60851708     0.34100
H1390       H  0.95697208  0.65691409  0.57974227     0.30800
H1391       H  0.00721952  0.81835189  0.52978458     0.38600
H1392       H  0.04536086  0.79882946  0.50801001     0.34100
C1393       C  0.95676277  0.02292363  0.44498838    -0.19600
C1394       C  0.96314644  0.01393797  0.48254095     0.36600
C1395       C  0.98914750  0.03505583  0.50333091    -0.25600
C1396       C  0.00545726  0.06711670  0.48753411     0.03000
C1397       C  0.00599104  0.07033237  0.44833882     0.27800
C1398       C  0.98044738  0.04885833  0.42725729    -0.24700
N1399       N  0.94082329  0.98587651  0.50031832    -0.82100
H1400       H  0.99009710  0.03112848  0.53338568     0.13600
C1401       C  0.99905263  0.10110663  0.51022971     0.03000
N1402       N  0.02835153  0.09823008  0.43024441    -0.80700
H1403       H  0.97742430  0.05399620  0.39754317     0.18500
C1404       C  0.01844354  0.10336838  0.54447071    -0.25500
C1405       C  0.99740639  0.10762856  0.57758532     0.36500
C1406       C  0.95724201  0.11079665  0.57541246    -0.19600
C1407       C  0.94044999  0.11949000  0.54104183    -0.24800
C1408       C  0.96142438  0.11544887  0.50813770     0.27900
H1409       H  0.04794976  0.09428764  0.54617561     0.13600
N1410       N  0.01599772  0.10368183  0.61308258    -0.82100
H1411       H  0.90984648  0.12343764  0.53894173     0.18500
N1412       N  0.94190857  0.11711780  0.47286297    -0.80700
H1413       H  0.03057301  0.07810192  0.61303999     0.34100
H1414       H  0.03635006  0.12475015  0.61545772     0.38600
H1415       H  0.91953303  0.09798369  0.47328012     0.34100
H1416       H  0.92990623  0.14369360  0.47010633     0.30800
H1417       H  0.04589972  0.11148585  0.44990161     0.34100
H1418       H  0.04668280  0.08442773  0.41158940     0.30800
H1419       H  0.95951444  0.96603647  0.51158128     0.38600
H1420       H  0.92590106  0.99845364  0.52244829     0.34100
C1421       C  0.90040703  0.34014642  0.17704586    -0.19600
C1422       C  0.93215363  0.34814624  0.19988534     0.36600
C1423       C  0.94477056  0.38486130  0.20242576    -0.25600
C1424       C  0.92485017  0.41282907  0.18364122     0.03000
C1425       C  0.88830959  0.40562017  0.16880018     0.27800
C1426       C  0.87658233  0.36882654  0.16476356    -0.24700
N1427       N  0.95218496  0.31940943  0.21959839    -0.82100
H1428       H  0.97165731  0.39113687  0.21583188     0.13600
C1429       C  0.94646500  0.44172520  0.16498097     0.03000
N1430       N  0.86596937  0.43512884  0.15281062    -0.80700
H1431       H  0.85057550  0.36257497  0.14954624     0.18500
C1432       C  0.95647073  0.43294960  0.12778709    -0.25500
C1433       C  0.95116863  0.45948221  0.09990475     0.36500
C1434       C  0.94008922  0.49559463  0.11042065    -0.19600
C1435       C  0.93976176  0.50622248  0.14840208    -0.24800
C1436       C  0.94120090  0.47892172  0.17594495     0.27900
H1437       H  0.96069709  0.40401207  0.11947985     0.13600
N1438       N  0.95113503  0.44848979  0.06124001    -0.82100
H1439       H  0.93140949  0.53441105  0.15631957     0.18500
N1440       N  0.93165318  0.48808753  0.21385568    -0.80700
H1441       H  0.97779247  0.43693306  0.05486636     0.34100
H1442       H  0.93077238  0.42758105  0.05757440     0.38600
H1443       H  0.95068520  0.50843597  0.22329728     0.34100
H1444       H  0.90428834  0.49989647  0.21407783     0.30800
H1445       H  0.86198032  0.42919214  0.12435555     0.34100
H1446       H  0.83924476  0.43527326  0.16572892     0.30800
H1447       H  0.93309384  0.30739076  0.23834348     0.38600
H1448       H  0.96015846  0.29869872  0.20041567     0.34100
C1449       C  0.41976754  0.72540013  0.06026960    -0.19600
C1450       C  0.41646217  0.73133948  0.02121871     0.36600
C1451       C  0.44944134  0.73284824  0.99929197    -0.25600
C1452       C  0.48505838  0.72731314  0.01589618     0.03000
C1453       C  0.48764041  0.71594562  0.05359995     0.27800
C1454       C  0.45484526  0.71457527  0.07536512    -0.24700
N1455       N  0.37998596  0.73837539  0.00441320    -0.82100
H1456       H  0.44746816  0.74140002  0.97033276     0.13600
C1457       C  0.51929759  0.74284261  0.99881588     0.03000
N1458       N  0.52411635  0.71108909  0.07119819    -0.80700
H1459       H  0.45774825  0.70968067  0.10514035     0.18500
C1460       C  0.52878541  0.77841048  0.01244876    -0.25500
C1461       C  0.56550751  0.78477552  0.02604788     0.36500
C1462       C  0.59306255  0.75622186  0.02291180    -0.19600
C1463       C  0.58565926  0.72450514  0.00089422    -0.24800
C1464       C  0.54859597  0.71798509  0.98807999     0.27900
H1465       H  0.50634319  0.79816659  0.01972601     0.13600
N1466       N  0.57354339  0.81818225  0.04690402    -0.82100
H1467       H  0.60756402  0.70338343  0.99674566     0.18500
N1468       N  0.54038524  0.68424995  0.96798253    -0.80700
H1469       H  0.55474920  0.81973541  0.06956292     0.34100
H1470       H  0.56810261  0.84100090  0.02958085     0.38600
H1471       H  0.52094300  0.66872836  0.98344635     0.34100
H1472       H  0.52724551  0.69156664  0.94274197     0.30800
H1473       H  0.52694215  0.73169204  0.09191122     0.34100
H1474       H  0.52443821  0.68531953  0.08459390     0.30800
H1475       H  0.37572707  0.71842889  0.98331491     0.38600
H1476       H  0.38071576  0.76459544  0.99177334     0.34100
C1477       C  0.61951992  0.99339439  0.90702568    -0.19600
C1478       C  0.61271686  0.95963051  0.88802980     0.36600
C1479       C  0.57604199  0.94538967  0.88728746    -0.25600
C1480       C  0.54631937  0.96509761  0.90427280     0.03000
C1481       C  0.55284042  0.99981886  0.92214843     0.27800
C1482       C  0.58996942  0.01332166  0.92414183    -0.24700
N1483       N  0.64279045  0.94079759  0.86821609    -0.82100
H1484       H  0.57034334  0.92006699  0.87186099     0.13600
C1485       C  0.50749492  0.95248650  0.89866494     0.03000
N1486       N  0.52155147  0.02180289  0.93653400    -0.80700
H1487       H  0.59579436  0.03971507  0.93802432     0.18500
C1488       C  0.48565087  0.94545718  0.93028822    -0.25500
C1489       C  0.44645771  0.95153475  0.92930618     0.36500
C1490       C  0.42879284  0.96067099  0.89478227    -0.19600
C1491       C  0.45055790  0.96050226  0.86184851    -0.24800
C1492       C  0.49009317  0.95801540  0.86380572     0.27900
H1493       H  0.49956789  0.94036159  0.95682644     0.13600
N1494       N  0.42589244  0.95229146  0.96394912    -0.82100
H1495       H  0.43727210  0.96568223  0.83495029     0.18500
N1496       N  0.51261162  0.96469803  0.83117440    -0.80700
H1497       H  0.43842086  0.97213198  0.98164669     0.34100
H1498       H  0.42892676  0.92614846  0.97647317     0.38600
H1499       H  0.50511515  0.94493620  0.81084800     0.34100
H1500       H  0.50548009  0.99114621  0.82100094     0.30800
H1501       H  0.53142084  0.04712376  0.94742898     0.34100
H1502       H  0.50389544  0.02876263  0.91397356     0.30800
H1503       H  0.63472172  0.93838147  0.84010443     0.38600
H1504       H  0.64543905  0.91393894  0.87900521     0.34100
C1505       C  0.42882193  0.05868797  0.07337869    -0.19600
C1506       C  0.42930646  0.05871876  0.03374658     0.36600
C1507       C  0.46390791  0.06477976  0.01507925    -0.25600
C1508       C  0.49677882  0.07361900  0.03563883     0.03000
C1509       C  0.49328060  0.08315039  0.07377780     0.27800
C1510       C  0.45985792  0.07452627  0.09258368    -0.24700
N1511       N  0.39526943  0.05169532  0.01263309    -0.82100
H1512       H  0.46589007  0.05904850  0.98532312     0.13600
C1513       C  0.53408836  0.05844149  0.02406626     0.00600
N1514       N  0.52548469  0.09650693  0.09463312    -0.80700
H1515       H  0.46040739  0.07669707  0.12277438     0.18500
C1516       C  0.56561069  0.08231289  0.02518277    -0.25500
C1517       C  0.60013180  0.06980582  0.04076683     0.36500
C1518       C  0.60305131  0.03282527  0.05349437    -0.19600
C1519       C  0.57443196  0.00732447  0.04464479    -0.24800
C1520       C  0.53981012  0.01987418  0.02992029     0.27900
H1521       H  0.56165797  0.11180082  0.01984762     0.13600
N1522       N  0.63116040  0.09509990  0.04583574    -0.82100
H1523       H  0.57735586  0.97837209  0.05288785     0.18500
N1524       N  0.50874708  0.99434064  0.02634026    -0.80700
H1525       H  0.62155131  0.11750440  0.06231339     0.34100
H1526       H  0.63847035  0.10548240  0.01955355     0.38600
H1527       H  0.51766926  0.97255945  0.00878125     0.34100
H1528       H  0.50336286  0.98303114  0.05268201     0.30800
H1529       H  0.51765473  0.12168905  0.10757775     0.34100
H1530       H  0.53197229  0.07720974  0.11555600     0.30800
H1531       H  0.38998125  0.07491041  0.99579470     0.38600
H1532       H  0.40020289  0.02880375  0.99492021     0.34100
C1533       C  0.10035392  0.31918523  0.17348422    -0.19600
C1534       C  0.06181872  0.32397626  0.18268962     0.36600
C1535       C  0.04478270  0.35864246  0.17773290    -0.25600
C1536       C  0.06675516  0.38852088  0.16620391     0.03000
C1537       C  0.10671729  0.38504722  0.16321620     0.27800
C1538       C  0.12346686  0.34984278  0.16651081    -0.24700
N1539       N  0.03943770  0.29262697  0.19329789    -0.82100
H1540       H  0.01417853  0.36110930  0.17895159     0.13600
C1541       C  0.04802227  0.41909104  0.14719735     0.03000
N1542       N  0.12941462  0.41641794  0.15285353    -0.80700
H1543       H  0.15343428  0.34594299  0.16003085     0.18500
C1544       C  0.04029537  0.45193623  0.16706910    -0.25500
C1545       C  0.03936807  0.48566850  0.14795344     0.36500
C1546       C  0.04760548  0.48556881  0.10944348    -0.19600
C1547       C  0.04719436  0.45227569  0.08887357    -0.24800
C1548       C  0.04801562  0.41856567  0.10781146     0.27900
H1549       H  0.03958087  0.45189569  0.19739864     0.13600
N1550       N  0.03681149  0.52028346  0.16821073    -0.82100
H1551       H  0.05284235  0.45235604  0.05903402     0.18500
N1552       N  0.05396126  0.38427886  0.08757107    -0.80700
H1553       H  0.05910305  0.52110021  0.18768906     0.34100
H1554       H  0.01122544  0.52059325  0.18311126     0.38600
H1555       H  0.03138756  0.38105203  0.06867284     0.34100
H1556       H  0.07917391  0.38651639  0.07217562     0.30800
H1557       H  0.15040194  0.42011944  0.17336688     0.34100
H1558       H  0.14304386  0.41004925  0.12755723     0.30800
H1559       H  0.02734853  0.29854690  0.21941260     0.38600
H1560       H  0.01769767  0.28960167  0.17350218     0.34100
C1561       C  0.44066963  0.27502269  0.91912676    -0.19600
C1562       C  0.43855688  0.24327388  0.94191483     0.36600
C1563       C  0.43387132  0.24856241  0.98023777    -0.25600
C1564       C  0.43367899  0.28471443  0.99522847     0.03000
C1565       C  0.44443793  0.31518578  0.97358944     0.27800
C1566       C  0.44785981  0.31020345  0.93517851    -0.24700
N1567       N  0.43711574  0.20650452  0.92555463    -0.82100
H1568       H  0.42730976  0.22501171  0.99785531     0.13600
C1569       C  0.41826064  0.28997701  0.03230047     0.03000
N1570       N  0.45004936  0.35123555  0.99018607    -0.80700
H1571       H  0.45129092  0.33470597  0.91797811     0.18500
C1572       C  0.44181439  0.28187076  0.06241362    -0.25500
C1573       C  0.42641910  0.27817919  0.09767673     0.36500
C1574       C  0.38731590  0.28593602  0.10338171    -0.19600
C1575       C  0.36349899  0.29466801  0.07327207    -0.24800
C1576       C  0.37880439  0.29584736  0.03722103     0.27900
H1577       H  0.47177438  0.27590163  0.05832256     0.13600
N1578       N  0.45021259  0.26505318  0.12755488    -0.82100
H1579       H  0.33327538  0.29951293  0.07762271     0.18500
N1580       N  0.35429037  0.30098860  0.00549510    -0.80700
H1581       H  0.47328823  0.28319777  0.13030265     0.34100
H1582       H  0.46083177  0.23867147  0.12015918     0.38600
H1583       H  0.33457154  0.27923668  0.00512387     0.34100
H1584       H  0.33912837  0.32594603  0.00922460     0.30800
H1585       H  0.47851888  0.35852037  0.98589845     0.34100
H1586       H  0.43339080  0.37039118  0.97534812     0.30800
H1587       H  0.46260568  0.20204848  0.91105602     0.38600
H1588       H  0.43602746  0.18628312  0.94647051     0.34100
C1589       C  0.06407104  0.19455170  0.47161365    -0.19600
C1590       C  0.02772686  0.19062287  0.45578460     0.36600
C1591       C  0.99599304  0.19456268  0.47870208    -0.25600
C1592       C  0.00003225  0.20555164  0.51647875     0.03000
C1593       C  0.03605679  0.20392848  0.53333456     0.27800
C1594       C  0.06805230  0.19713900  0.51081864    -0.24700
N1595       N  0.02273271  0.18838151  0.41598158    -0.82100
H1596       H  0.96838511  0.19574735  0.46521552     0.13600
C1597       C  0.97020422  0.23093268  0.53091424     0.03000
N1598       N  0.04046458  0.21290375  0.57221253    -0.80700
H1599       H  0.09616021  0.19909844  0.52325078     0.18500
C1600       C  0.93396395  0.21503313  0.53280227    -0.25500
C1601       C  0.90698962  0.22426917  0.50536521     0.36500
C1602       C  0.91560773  0.25267856  0.47971061    -0.19600
C1603       C  0.94613944  0.27659833  0.48739252    -0.24800
C1604       C  0.97278572  0.26666003  0.51489778     0.27900
H1605       H  0.92941919  0.19101896  0.55019852     0.13600
N1606       N  0.87194424  0.20413593  0.50266494    -0.82100
H1607       H  0.95088376  0.30101210  0.47034489     0.18500
N1608       N  0.00647542  0.28843767  0.52023934    -0.80700
H1609       H  0.87838015  0.17582322  0.49900866     0.34100
H1610       H  0.85760964  0.20721202  0.52814799     0.38600
H1611       H  0.02001226  0.29115315  0.49435226     0.34100
H1612       H  0.99799971  0.31508518  0.52922053     0.30800
H1613       H  0.05394725  0.19025287  0.58510250     0.34100
H1614       H  0.05854078  0.23591028  0.57449493     0.30800
H1615       H  0.00779774  0.21221575  0.40739889     0.38600
H1616       H  0.00567285  0.16531350  0.40989201     0.34100
C1617       C  0.41026068  0.79251049  0.33480449    -0.19600
C1618       C  0.39605867  0.82914416  0.33290433     0.36600
C1619       C  0.42018407  0.85755198  0.32167059    -0.25600
C1620       C  0.45873118  0.85006327  0.31368579     0.03000
C1621       C  0.47158298  0.81295537  0.31117516     0.27800
C1622       C  0.44718783  0.78416996  0.32195172    -0.24700
N1623       N  0.35826357  0.83803243  0.34550385    -0.82100
H1624       H  0.40999301  0.88617041  0.32363918     0.13600
C1625       C  0.48480913  0.88132659  0.32050139     0.03000
N1626       N  0.50935668  0.80457363  0.29865961    -0.80700
H1627       H  0.45762705  0.75559743  0.32210098     0.18500
C1628       C  0.49221437  0.88710464  0.35877076    -0.25500
C1629       C  0.48108461  0.92093670  0.37551992     0.36500
C1630       C  0.47016270  0.95097574  0.35271124    -0.19600
C1631       C  0.47393303  0.94767902  0.31366797    -0.24800
C1632       C  0.48056343  0.91253241  0.29729323     0.27900
H1633       H  0.49628742  0.86309975  0.37671562     0.13600
N1634       N  0.47408609  0.92251076  0.41499879    -0.82100
H1635       H  0.46601348  0.97090972  0.29593903     0.18500
N1636       N  0.47587785  0.90732259  0.25777576    -0.80700
H1637       H  0.49896098  0.91455356  0.42881753     0.34100
H1638       H  0.45330606  0.90272595  0.42121056     0.38600
H1639       H  0.44857361  0.91669643  0.25038731     0.34100
H1640       H  0.49571113  0.92416529  0.24428244     0.30800
H1641       H  0.52240108  0.78827769  0.31913387     0.34100
H1642       H  0.50718123  0.78804118  0.27449944     0.30800
H1643       H  0.36033776  0.85716028  0.36768164     0.38600
H1644       H  0.34370563  0.85105676  0.32356132     0.34100
C1645       C  0.34390536  0.46374318  0.92321233    -0.19600
C1646       C  0.34170411  0.42434523  0.92297494     0.36600
C1647       C  0.33338775  0.40552814  0.95604769    -0.25600
C1648       C  0.32604911  0.42537668  0.98914434     0.03000
C1649       C  0.32658743  0.46482558  0.98895577     0.27800
C1650       C  0.33499598  0.48359389  0.95595489    -0.24700
N1651       N  0.34831064  0.40326897  0.88937707    -0.82100
H1652       H  0.33477885  0.37529357  0.95633826     0.13600
C1653       C  0.32957522  0.40605530  0.02509391     0.03000
N1654       N  0.32219412  0.48584784  0.02301114    -0.80700
H1655       H  0.33679579  0.51379268  0.95653778     0.18500
C1656       C  0.36690397  0.39566727  0.03464334    -0.25500
C1657       C  0.38071987  0.40366051  0.07035295     0.36500
C1658       C  0.35525714  0.41828415  0.09706508    -0.19600
C1659       C  0.31596819  0.41721680  0.09031738    -0.24800
C1660       C  0.30290724  0.41287222  0.05373640     0.27900
H1661       H  0.38714274  0.38934535  0.01283989     0.13600
N1662       N  0.42098414  0.40259458  0.07738473    -0.82100
H1663       H  0.29625137  0.42716274  0.11159355     0.18500
N1664       N  0.26409216  0.42168460  0.04514396    -0.80700
H1665       H  0.43060361  0.37526036  0.07265919     0.34100
H1666       H  0.43436748  0.41989246  0.05804457     0.38600
H1667       H  0.24686352  0.40357072  0.06032589     0.34100
H1668       H  0.25835000  0.44881049  0.05473922     0.30800
H1669       H  0.34711864  0.50110116  0.02758649     0.34100
H1670       H  0.29965423  0.50476945  0.01949365     0.30800
H1671       H  0.37105745  0.38483613  0.89416652     0.38600
H1672       H  0.32400683  0.38741244  0.88376805     0.34100
C1673       C  0.54969596  0.24547219  0.91322152    -0.19600
C1674       C  0.54575381  0.20625433  0.91306956     0.36600
C1675       C  0.53444369  0.18839128  0.94603303    -0.25600
C1676       C  0.52946473  0.20914250  0.97908376     0.03000
C1677       C  0.52958617  0.24856041  0.97775738     0.27800
C1678       C  0.53795706  0.26634537  0.94429285    -0.24700
N1679       N  0.55713955  0.18472402  0.88080140    -0.82100
H1680       H  0.53532685  0.15817491  0.94742888     0.13600
C1681       C  0.54286693  0.19241064  0.01406362     0.03000
N1682       N  0.52941225  0.27019402  0.01170416    -0.80700
H1683       H  0.54149127  0.29640233  0.94458104     0.18500
C1684       C  0.58257221  0.19171512  0.01788899    -0.25500
C1685       C  0.59937117  0.19945214  0.05231298     0.36500
C1686       C  0.57604533  0.20463024  0.08409585    -0.19600
C1687       C  0.53661422  0.19819442  0.08124106    -0.24800
C1688       C  0.51980254  0.19208070  0.04607182     0.27900
H1689       H  0.60046912  0.19159185  0.99314630     0.13600
N1690       N  0.63959022  0.20625834  0.05383832    -0.82100
H1691       H  0.51872287  0.20035735  0.10585800     0.18500
N1692       N  0.47949555  0.18721141  0.04257284    -0.80700
H1693       H  0.65377375  0.18228032  0.04418332     0.34100
H1694       H  0.64577049  0.22808683  0.03561311     0.38600
H1695       H  0.47213135  0.16347110  0.05767746     0.34100
H1696       H  0.46591304  0.20996820  0.05527226     0.30800
H1697       H  0.55657864  0.28157742  0.01523116     0.34100
H1698       H  0.51057473  0.29259258  0.00833140     0.30800
H1699       H  0.53865772  0.19171341  0.85890973     0.38600
H1700       H  0.55368293  0.15619818  0.88566767     0.34100
C1701       C  0.42290971  0.82168112  0.65313983    -0.19600
C1702       C  0.46057753  0.81968513  0.66697332     0.36600
C1703       C  0.48052951  0.85290726  0.67401491    -0.25600
C1704       C  0.46162701  0.88727284  0.67037434     0.03000
C1705       C  0.42220413  0.88842846  0.66243591     0.27800
C1706       C  0.40347526  0.85579772  0.65273316    -0.24700
N1707       N  0.47756129  0.78415003  0.67529691    -0.82100
H1708       H  0.51049947  0.85195386  0.68144717     0.13600
C1709       C  0.48237913  0.92244684  0.66751759     0.03000
N1710       N  0.40183127  0.92330488  0.66186073    -0.80700
H1711       H  0.37394715  0.85729655  0.64373088     0.18500
C1712       C  0.48205407  0.93694055  0.63126646    -0.25500
C1713       C  0.47062369  0.97354039  0.62531264     0.36500
C1714       C  0.46325044  0.99705696  0.65640649    -0.19600
C1715       C  0.47197142  0.98465037  0.69261243    -0.24800
C1716       C  0.48184597  0.94719230  0.69834362     0.27900
H1717       H  0.48044208  0.91827544  0.60743588     0.13600
N1718       N  0.46064630  0.98467320  0.58801501    -0.82100
H1719       H  0.46754333  0.00297892  0.71651363     0.18500
N1720       N  0.48686730  0.93396494  0.73573480    -0.80700
H1721       H  0.48476267  0.98154649  0.57110445     0.34100
H1722       H  0.43953039  0.96674854  0.57783238     0.38600
H1723       H  0.46615657  0.91390518  0.74118980     0.34100
H1724       H  0.51363994  0.92098833  0.73724078     0.30800
H1725       H  0.39047026  0.92701899  0.63504433     0.34100
H1726       H  0.37919007  0.92168897  0.68075494     0.30800
H1727       H  0.48355351  0.78372166  0.70397153     0.38600
H1728       H  0.50349765  0.78146455  0.66126869     0.34100
C1729       C  0.90725941  0.39189615  0.67056540    -0.19600
C1730       C  0.93773397  0.40402108  0.64823013     0.36600
C1731       C  0.96973173  0.41948915  0.66553982    -0.25600
C1732       C  0.97266453  0.42007339  0.70478766     0.03000
C1733       C  0.93912534  0.41659742  0.72598274     0.27800
C1734       C  0.90646131  0.40193503  0.70869805    -0.24700
N1735       N  0.93845582  0.39657918  0.60875818    -0.82100
H1736       H  0.99480911  0.42394045  0.64848999     0.13600
C1737       C  0.00950329  0.40578689  0.71940108     0.03000
N1738       N  0.93976503  0.42339661  0.76555336    -0.80700
H1739       H  0.88209576  0.39475222  0.72573125     0.18500
C1740       C  0.04315551  0.42248985  0.70663842    -0.25500
C1741       C  0.07473378  0.40032108  0.69634550     0.36500
C1742       C  0.07259976  0.36109876  0.69941505    -0.19600
C1743       C  0.04190530  0.34577574  0.71898611    -0.24800
C1744       C  0.01085625  0.36779930  0.72974657     0.27900
H1745       H  0.04300828  0.45189482  0.69971178     0.13600
N1746       N  0.10807288  0.41755203  0.68144599    -0.82100
H1747       H  0.03995081  0.31591972  0.72299740     0.18500
N1748       N  0.97869447  0.35016406  0.74660475    -0.80700
H1749       H  0.11847268  0.43628728  0.70154801     0.34100
H1750       H  0.09999850  0.43289561  0.65790149     0.38600
H1751       H  0.96912638  0.32901880  0.72861358     0.34100
H1752       H  0.98781047  0.33782484  0.77153261     0.30800
H1753       H  0.91927809  0.44395059  0.77150550     0.34100
H1754       H  0.93145223  0.39904228  0.77914618     0.30800
H1755       H  0.96209916  0.37956103  0.60287921     0.38600
H1756       H  0.94213264  0.42195493  0.59500748     0.34100
C1757       C  0.57581576  0.78876945  0.38875383    -0.19600
C1758       C  0.58705267  0.82199901  0.37140394     0.36600
C1759       C  0.60095658  0.85103647  0.39339381    -0.25600
C1760       C  0.60322499  0.84750459  0.43233050     0.03000
C1761       C  0.59120813  0.81527190  0.44978941     0.27800
C1762       C  0.57771634  0.78591852  0.42810670    -0.24700
N1763       N  0.58456365  0.82642100  0.33169024    -0.82100
H1764       H  0.60918277  0.87690809  0.38018481     0.13600
C1765       C  0.61210819  0.88073971  0.45369990     0.03000
N1766       N  0.59273726  0.81241605  0.48947422    -0.80700
H1767       H  0.57023696  0.76038178  0.44225023     0.18500
C1768       C  0.58222788  0.90636388  0.45604252    -0.25500
C1769       C  0.58944530  0.94381450  0.45014813     0.36500
C1770       C  0.62754094  0.95597575  0.44868170    -0.19600
C1771       C  0.65769875  0.93065115  0.45427288    -0.24800
C1772       C  0.65001917  0.89250098  0.45545240     0.27900
H1773       H  0.55319627  0.89649836  0.45480015     0.13600
N1774       N  0.55851335  0.96838421  0.44048663    -0.82100
H1775       H  0.68700472  0.93995093  0.45275443     0.18500
N1776       N  0.68032494  0.86560463  0.45367007    -0.80700
H1777       H  0.53779385  0.96728207  0.46139629     0.34100
H1778       H  0.54648817  0.95878645  0.41544195     0.38600
H1779       H  0.69657026  0.87096505  0.42983400     0.34100
H1780       H  0.69750816  0.86952028  0.47721947     0.30800
H1781       H  0.56491052  0.80804127  0.49876285     0.34100
H1782       H  0.60949087  0.78905321  0.49588936     0.30800
H1783       H  0.56731691  0.84972132  0.32634417     0.38600
H1784       H  0.61187053  0.83212160  0.32163061     0.34100
C1785       C  0.90090168  0.43542807  0.30711472    -0.19600
C1786       C  0.90070041  0.39599212  0.30605853     0.36600
C1787       C  0.93516694  0.37674616  0.30034996    -0.25600
C1788       C  0.96872591  0.39664352  0.29453364     0.03000
C1789       C  0.96741962  0.43562720  0.28967596     0.27800
C1790       C  0.93357795  0.45472394  0.29639085    -0.24700
N1791       N  0.86605721  0.37591678  0.31244606    -0.82100
H1792       H  0.93654809  0.34674019  0.30379751     0.13600
C1793       C  0.00496008  0.38088005  0.30694478     0.03000
N1794       N  0.00158430  0.45625651  0.28277126    -0.80700
H1795       H  0.93388626  0.48498462  0.29644024     0.18500
C1796       C  0.03496572  0.38012889  0.28122213    -0.25500
C1797       C  0.07107529  0.39203190  0.29236395     0.36500
C1798       C  0.07663966  0.40398508  0.32959902    -0.19600
C1799       C  0.04848040  0.39763318  0.35650096    -0.24800
C1800       C  0.01266069  0.38536446  0.34539463     0.27900
H1801       H  0.02908763  0.37612760  0.25175480     0.13600
N1802       N  0.10120374  0.39450239  0.26547901    -0.82100
H1803       H  0.05279607  0.40578199  0.38548835     0.18500
N1804       N  0.98244010  0.38357069  0.37229132    -0.80700
H1805       H  0.09213363  0.41215108  0.24399967     0.34100
H1806       H  0.10575284  0.36791379  0.25398949     0.38600
H1807       H  0.99043960  0.36437892  0.39281210     0.34100
H1808       H  0.97956112  0.40979274  0.38513417     0.30800
H1809       H  0.99771384  0.47160098  0.25829378     0.34100
H1810       H  0.00571781  0.47503856  0.30496240     0.30800
H1811       H  0.84738140  0.38226265  0.29049891     0.38600
H1812       H  0.87107535  0.34711900  0.31104722     0.34100
C1813       C  0.56549266  0.58568008  0.90814632    -0.19600
C1814       C  0.52538715  0.58886793  0.90975726     0.36600
C1815       C  0.50727686  0.58922037  0.94467261    -0.25600
C1816       C  0.52914003  0.58721931  0.97741848     0.03000
C1817       C  0.56897010  0.59288980  0.97542166     0.27800
C1818       C  0.58690505  0.59193234  0.94063527    -0.24700
N1819       N  0.50313896  0.58861849  0.87609003    -0.82100
H1820       H  0.47659171  0.58610934  0.94602370     0.13600
C1821       C  0.51525243  0.56428750  0.00844168     0.03000
N1822       N  0.59188094  0.59390373  0.00869810    -0.80700
H1823       H  0.61779460  0.59090700  0.93975056     0.18500
C1824       C  0.51631182  0.52554109  0.00148759    -0.25500
C1825       C  0.53314323  0.50166083  0.02770428     0.36500
C1826       C  0.54643481  0.51687007  0.06148659    -0.19600
C1827       C  0.53559397  0.55336277  0.07186855    -0.24800
C1828       C  0.51994998  0.57739409  0.04520628     0.27900
H1829       H  0.51115282  0.51490200  0.97343664     0.13600
N1830       N  0.54034475  0.46328995  0.01844762    -0.82100
H1831       H  0.54392875  0.56456191  0.09894693     0.18500
N1832       N  0.51519095  0.61625269  0.05355783    -0.80700
H1833       H  0.55673239  0.46227166  0.99403858     0.34100
H1834       H  0.51413666  0.45073063  0.01263175     0.38600
H1835       H  0.49597650  0.61877074  0.07579214     0.34100
H1836       H  0.54154016  0.62645681  0.06259773     0.30800
H1837       H  0.61111855  0.57146294  0.00770022     0.34100
H1838       H  0.60755420  0.61861969  0.00860386     0.30800
H1839       H  0.48450214  0.56599468  0.87705625     0.38600
H1840       H  0.48668256  0.61308210  0.87575254     0.34100
C1841       C  0.91320256  0.55084444  0.50185378    -0.19600
C1842       C  0.91514381  0.58663509  0.48569402     0.36600
C1843       C  0.94374720  0.59349629  0.45922307    -0.25600
C1844       C  0.97262062  0.56673249  0.45404026     0.03000
C1845       C  0.96207193  0.52931141  0.45849348     0.27800
C1846       C  0.93414081  0.52142228  0.48508461    -0.24700
N1847       N  0.89016982  0.61619425  0.49762986    -0.82100
H1848       H  0.94811431  0.62146025  0.44958285     0.13600
C1849       C  0.00807166  0.57442033  0.47498038     0.03000
N1850       N  0.98539348  0.49992244  0.44329889    -0.80700
H1851       H  0.93105590  0.49289292  0.49433525     0.18500
C1852       C  0.00399946  0.57986973  0.51396362    -0.25500
C1853       C  0.03181391  0.56746296  0.53856984     0.36500
C1854       C  0.06646528  0.55402443  0.52432701    -0.19600
C1855       C  0.07291720  0.55336519  0.48552274    -0.24800
C1856       C  0.04356996  0.56297251  0.46065332     0.27900
H1857       H  0.97720842  0.58893871  0.52597391     0.13600
N1858       N  0.02349889  0.56520596  0.57778160    -0.82100
H1859       H  0.10014043  0.54389061  0.47455731     0.18500
N1860       N  0.04902707  0.55913575  0.42111706    -0.80700
H1861       H  0.01724869  0.59198666  0.58775786     0.34100
H1862       H  0.99921925  0.54877218  0.58108482     0.38600
H1863       H  0.07177158  0.57620031  0.41358045     0.34100
H1864       H  0.05694258  0.53146996  0.41538607     0.30800
H1865       H  0.99730317  0.48492102  0.46549830     0.34100
H1866       H  0.96766879  0.48188416  0.42820147     0.30800
H1867       H  0.87581139  0.62629561  0.47407427     0.38600
H1868       H  0.90692337  0.63777369  0.50849884     0.34100
C1869       C  0.59599632  0.81961856  0.57252651    -0.19600
C1870       C  0.55861157  0.83207096  0.58036574     0.36600
C1871       C  0.55224266  0.86961627  0.58794852    -0.25600
C1872       C  0.58223028  0.89473483  0.58691982     0.03000
C1873       C  0.61852360  0.88329206  0.57466565     0.27800
C1874       C  0.62526097  0.84557475  0.56751381    -0.24700
N1875       N  0.52744876  0.80663445  0.58283301    -0.82100
H1876       H  0.52424684  0.87849523  0.59639360     0.13600
C1877       C  0.57630528  0.93262590  0.60038527     0.03000
N1878       N  0.64882655  0.90966309  0.57127063    -0.80700
H1879       H  0.65381201  0.83625163  0.56023624     0.18500
C1880       C  0.57966125  0.94039369  0.63878863    -0.25500
C1881       C  0.58339326  0.97738402  0.65137542     0.36500
C1882       C  0.58527866  0.00591851  0.62467627    -0.19600
C1883       C  0.57863855  0.99777617  0.58664229    -0.24800
C1884       C  0.57332234  0.96139968  0.57460216     0.27900
H1885       H  0.58088774  0.91761565  0.65854824     0.13600
N1886       N  0.58582193  0.98605457  0.69062418    -0.82100
H1887       H  0.57945981  0.01951492  0.56570852     0.18500
N1888       N  0.56709436  0.95349277  0.53583584    -0.80700
H1889       H  0.58352016  0.96170899  0.70639123     0.34100
H1890       H  0.56210530  0.00263597  0.69740936     0.38600
H1891       H  0.54219120  0.96751504  0.52774290     0.34100
H1892       H  0.58990140  0.96491154  0.52121721     0.30800
H1893       H  0.67114512  0.90129808  0.58884552     0.34100
H1894       H  0.65870509  0.90856232  0.54368158     0.30800
H1895       H  0.51491007  0.81031051  0.60897729     0.38600
H1896       H  0.50715279  0.81424722  0.56275464     0.34100
loop_ 
_geom_bond_atom_site_label_1 
_geom_bond_atom_site_label_2 
_geom_bond_distance 
_geom_bond_site_symmetry_2 
_ccdc_geom_bond_type 
N1            C6   1.362       .  A
N1            C5   1.363       .  A
N1           H33   1.041       .  S
N2            C9   1.362       .  A
N2           C10   1.361       .  A
N3            C8   1.362       .  A
N3            C7   1.362       .  A
N3           H34   1.042       .  S
N4           C11   1.362       .  A
N4           C12   1.361       .  A
C5           C13   1.388       .  A
C5           C21   1.430       .  A
C6           C22   1.435       .  A
C6           C14   1.389       .  A
C7           C15   1.388       .  A
C7           C24   1.432       .  A
C8           C23   1.428       .  A
C8           C16   1.386       .  A
C9           C21   1.428       .  A
C9           C17   1.385       .  A
C10          C24   1.431       .  A
C10          C18   1.387       .  A
C11          C19   1.383       .  A
C11          C22   1.421       .  A
C12          C20   1.388       .  A
C12          C23   1.434       .  A
C13          C14   1.375       .  A
C13          H25   1.081       .  S
C14          H26   1.082       .  S
C15          C16   1.383       .  A
C15          H27   1.082       .  S
C16          H28   1.082       .  S
C17          C18   1.377       .  A
C17          H29   1.083       .  S
C18          H30   1.083       .  S
C19          C20   1.376       .  A
C19          H31   1.081       .  S
C20          H32   1.082       .  S
C21         C420   1.514       .  S
C22         C492   1.517       .  S
C23         C582   1.525       .  S
C24         C528   1.518       .  S
N35          C40   1.361       .  A
N35          C39   1.359       .  A
N35          H67   1.038       .  S
N36          C43   1.367       .  A
N36          C44   1.363       .  A
N37          C42   1.366       .  A
N37          C41   1.370       .  A
N37          H68   1.033       .  S
N38          C45   1.361       .  A
N38          C46   1.365       .  A
C39          C47   1.390       .  A
C39          C55   1.436       .  A
C40          C56   1.423       .  A
C40          C48   1.384       .  A
C41          C49   1.387       .  A
C41          C58   1.445       .  A
C42          C57   1.450       .  A
C42          C50   1.386       .  A
C43          C55   1.435       .  A
C43          C51   1.384       .  A
C44          C58   1.453       .  A
C44          C52   1.391       .  A
C45          C53   1.389       .  A
C45          C56   1.439       .  A
C46          C54   1.384       .  A
C46          C57   1.430       .  A
C47          C48   1.377       .  A
C47          H59   1.083       .  S
C48          H60   1.079       .  S
C49          C50   1.379       .  A
C49          H61   1.075       .  S
C50          H62   1.082       .  S
C51          C52   1.373       .  A
C51          H63   1.078       .  S
C52          H64   1.081       .  S
C53          C54   1.371       .  A
C53          H65   1.082       .  S
C54          H66   1.080       .  S
C55         C510   1.532       .  S
C56         C440   1.522       .  S
C57         C476   1.536       .  S
C58         C602   1.552       .  S
N69          C74   1.364       .  A
N69          C73   1.363       .  A
N69         H101   1.029       .  S
N70          C77   1.359       .  A
N70          C78   1.361       .  A
N71          C76   1.361       .  A
N71          C75   1.359       .  A
N71         H102   1.032       .  S
N72          C79   1.365       .  A
N72          C80   1.367       .  A
C73          C81   1.390       .  A
C73          C89   1.440       .  A
C74          C90   1.433       .  A
C74          C82   1.386       .  A
C75          C83   1.387       .  A
C75          C92   1.427       .  A
C76          C91   1.426       .  A
C76          C84   1.385       .  A
C77          C89   1.431       .  A
C77          C85   1.389       .  A
C78          C92   1.426       .  A
C78          C86   1.385       .  A
C79          C87   1.387       .  A
C79          C90   1.438       .  A
C80          C88   1.385       .  A
C80          C91   1.435       .  A
C81          C82   1.380       .  A
C81          H93   1.083       .  S
C82          H94   1.082       .  S
C83          C84   1.379       .  A
C83          H95   1.083       .  S
C84          H96   1.082       .  S
C85          C86   1.379       .  A
C85          H97   1.082       .  S
C86          H98   1.082       .  S
C87          C88   1.374       .  A
C87          H99   1.082       .  S
C88         H100   1.082       .  S
C89         C519   1.515       .  S
C90         C413   1.518       .  S
C91         C485   1.519       .  S
C92         C573   1.510       .  S
N103        C108   1.363       .  A
N103        C107   1.361       .  A
N103        H135   1.032       .  S
N104        C111   1.357       .  A
N104        C112   1.366       .  A
N105        C110   1.355       .  A
N105        C109   1.358       .  A
N105        H136   1.040       .  S
N106        C113   1.364       .  A
N106        C114   1.358       .  A
C107        C115   1.384       .  A
C107        C123   1.426       .  A
C108        C124   1.444       .  A
C108        C116   1.390       .  A
C109        C117   1.388       .  A
C109        C126   1.428       .  A
C110        C125   1.412       .  A
C110        C118   1.383       .  A
C111        C123   1.444       .  A
C111        C119   1.391       .  A
C112        C126   1.429       .  A
C112        C120   1.382       .  A
C113        C121   1.385       .  A
C113        C124   1.432       .  A
C114        C122   1.389       .  A
C114        C125   1.439       .  A
C115        C116   1.376       .  A
C115        H127   1.081       .  S
C116        H128   1.082       .  S
C117        C118   1.378       .  A
C117        H129   1.083       .  S
C118        H130   1.081       .  S
C119        C120   1.375       .  A
C119        H131   1.082       .  S
C120        H132   1.078       .  S
C121        C122   1.374       .  A
C121        H133   1.080       .  S
C122        H134   1.083       .  S
C123        C591   1.513       .  S
C124        C467   1.534       .  S
C125        C429   1.510       .  S
C126        C503   1.535       .  S
N137        C142   1.361       .  A
N137        C141   1.365       .  A
N137        H169   1.035       .  S
N138        C145   1.359       .  A
N138        C146   1.361       .  A
N139        C144   1.356       .  A
N139        C143   1.360       .  A
N139        H170   1.035       .  S
N140        C147   1.360       .  A
N140        C148   1.361       .  A
C141        C149   1.385       .  A
C141        C157   1.436       .  A
C142        C158   1.444       .  A
C142        C150   1.392       .  A
C143        C151   1.383       .  A
C143        C160   1.423       .  A
C144        C159   1.436       .  A
C144        C152   1.392       .  A
C145        C157   1.434       .  A
C145        C153   1.387       .  A
C146        C160   1.437       .  A
C146        C154   1.387       .  A
C147        C155   1.389       .  A
C147        C158   1.434       .  A
C148        C156   1.385       .  A
C148        C159   1.430       .  A
C149        C150   1.377       .  A
C149        H161   1.081       .  S
C150        H162   1.082       .  S
C151        C152   1.373       .  A
C151        H163   1.080       .  S
C152        H164   1.082       .  S
C153        C154   1.376       .  A
C153        H165   1.083       .  S
C154        H166   1.082       .  S
C155        C156   1.376       .  A
C155        H167   1.082       .  S
C156        H168   1.082       .  S
C157        C618   1.520       .  S
C158        C546   1.513       .  S
C159        C456   1.508       .  S
C160        C564   1.519       .  S
N171        C176   1.361       .  A
N171        C175   1.363       .  A
N171        H203   1.030       .  S
N172        C179   1.359       .  A
N172        C180   1.360       .  A
N173        C178   1.360       .  A
N173        C177   1.354       .  A
N173        H204   1.036       .  S
N174        C181   1.354       .  A
N174        C182   1.361       .  A
C175        C183   1.393       .  A
C175        C191   1.443       .  A
C176        C192   1.426       .  A
C176        C184   1.383       .  A
C177        C185   1.388       .  A
C177        C194   1.423       .  A
C178        C193   1.423       .  A
C178        C186   1.384       .  A
C179        C191   1.430       .  A
C179        C187   1.388       .  A
C180        C194   1.426       .  A
C180        C188   1.385       .  A
C181        C189   1.390       .  A
C181        C192   1.429       .  A
C182        C190   1.382       .  A
C182        C193   1.420       .  A
C183        C184   1.380       .  A
C183        H195   1.082       .  S
C184        H196   1.082       .  S
C185        C186   1.380       .  A
C185        H197   1.083       .  S
C186        H198   1.082       .  S
C187        C188   1.383       .  A
C187        H199   1.082       .  S
C188        H200   1.082       .  S
C189        C190   1.373       .  A
C189        H201   1.082       .  S
C190        H202   1.081       .  S
C191        C449   1.520       .  S
C192        C555   1.506       .  S
C193        C609   1.513       .  S
C194        C537   1.512       .  S
N205        C210   1.357       .  A
N205        C209   1.368       .  A
N205        H237   1.036       .  S
N206        C213   1.364   1_655  A
N206        C214   1.361       .  A
N207        C212   1.355       .  A
N207        C211   1.354       .  A
N207        H238   1.040       .  S
N208        C215   1.357   1_655  A
N208        C216   1.361       .  A
C209        C217   1.379       .  A
C209        C225   1.430   1_556  A
C210        C226   1.444       .  A
C210        C218   1.394       .  A
C211        C219   1.381       .  A
C211        C228   1.411   1_556  A
C212        C227   1.427       .  A
C212        C220   1.391       .  A
C213        C225   1.443       .  A
C213        C221   1.387       .  A
C214        C228   1.434       .  A
C214        C222   1.385       .  A
C215        C223   1.390       .  A
C215        C226   1.430       .  A
C216        C224   1.384       .  A
C216        C227   1.423       .  A
C217        C218   1.381       .  A
C217        H229   1.082       .  S
C218        H230   1.082       .  S
C219        C220   1.381       .  A
C219        H231   1.082       .  S
C220        H232   1.083       .  S
C221        C222   1.376   1_455  A
C221        H233   1.082       .  S
C222        H234   1.083       .  S
C223        C224   1.379   1_455  A
C223        H235   1.082       .  S
C224        H236   1.082       .  S
C225        C636   1.541       .  S
C226       C1010   1.507       .  S
C227        C762   1.511       .  S
C228        C708   1.516       .  S
N239        C244   1.363       .  A
N239        C243   1.364       .  A
N239        H271   1.038       .  S
N240        C247   1.361       .  A
N240        C248   1.358   1_556  A
N241        C246   1.364       .  A
N241        C245   1.361       .  A
N241        H272   1.041       .  S
N242        C249   1.362   1_554  A
N242        C250   1.362       .  A
C243        C251   1.388       .  A
C243        C259   1.435       .  A
C244        C260   1.433       .  A
C244        C252   1.389       .  A
C245        C253   1.388       .  A
C245        C262   1.428       .  A
C246        C261   1.427       .  A
C246        C254   1.386       .  A
C247        C259   1.419       .  A
C247        C255   1.382       .  A
C248        C262   1.433       .  A
C248        C256   1.391       .  A
C249        C257   1.385   1_565  A
C249        C260   1.426       .  A
C250        C258   1.387   1_565  A
C250        C261   1.433       .  A
C251        C252   1.373       .  A
C251        H263   1.083       .  S
C252        H264   1.082       .  S
C253        C254   1.374       .  A
C253        H265   1.082       .  S
C254        H266   1.082       .  S
C255        C256   1.375   1_556  A
C255        H267   1.082       .  S
C256        H268   1.083       .  S
C257        C258   1.375   1_556  A
C257        H269   1.083       .  S
C258        H270   1.083       .  S
C259        C800   1.516       .  S
C260        C674   1.508       .  S
C261        C654   1.517       .  S
C262        C690   1.510       .  S
N273        C278   1.361   1_554  A
N273        C277   1.363       .  A
N273        H305   1.038       .  S
N274        C281   1.360   1_455  A
N274        C282   1.359       .  A
N275        C280   1.359   1_554  A
N275        C279   1.363       .  A
N275        H306   1.036       .  S
N276        C283   1.364   1_455  A
N276        C284   1.363       .  A
C277        C285   1.382       .  A
C277        C293   1.426       .  A
C278        C294   1.442       .  A
C278        C286   1.393   1_556  A
C279        C287   1.382       .  A
C279        C296   1.426       .  A
C280        C295   1.438       .  A
C280        C288   1.392   1_556  A
C281        C293   1.423       .  A
C281        C289   1.385       .  A
C282        C296   1.429       .  A
C282        C290   1.387       .  A
C283        C291   1.386       .  A
C283        C294   1.434       .  A
C284        C292   1.387       .  A
C284        C295   1.435       .  A
C285        C286   1.381       .  A
C285        H297   1.082       .  S
C286        H298   1.082   1_554  S
C287        C288   1.381       .  A
C287        H299   1.082       .  S
C288        H300   1.083   1_554  S
C289        C290   1.372   1_655  A
C289        H301   1.082       .  S
C290        H302   1.082       .  S
C291        C292   1.384   1_655  A
C291        H303   1.082       .  S
C292        H304   1.082       .  S
C293        C701   1.514       .  S
C294        C753   1.529       .  S
C295       C1001   1.522       .  S
C296        C629   1.515       .  S
N307        C312   1.364       .  A
N307        C311   1.364       .  A
N307        H339   1.039       .  S
N308        C315   1.360       .  A
N308        C316   1.361   1_554  A
N309        C314   1.362       .  A
N309        C313   1.360       .  A
N309        H340   1.036       .  S
N310        C317   1.362       .  A
N310        C318   1.365   1_554  A
C311        C319   1.387       .  A
C311        C327   1.433       .  A
C312        C328   1.433       .  A
C312        C320   1.388       .  A
C313        C321   1.388       .  A
C313        C330   1.429       .  A
C314        C329   1.432       .  A
C314        C322   1.388       .  A
C315        C327   1.436       .  A
C315        C323   1.391       .  A
C316        C330   1.421       .  A
C316        C324   1.381       .  A
C317        C325   1.391   1_565  A
C317        C328   1.442       .  A
C318        C326   1.381   1_565  A
C318        C329   1.428       .  A
C319        C320   1.380       .  A
C319        H331   1.082       .  S
C320        H332   1.082       .  S
C321        C322   1.372       .  A
C321        H333   1.083       .  S
C322        H334   1.083       .  S
C323        C324   1.373   1_554  A
C323        H335   1.083       .  S
C324        H336   1.082       .  S
C325        C326   1.376   1_554  A
C325        H337   1.082       .  S
C326        H338   1.082       .  S
C327        C683   1.515       .  S
C328        C645   1.526       .  S
C329        C663   1.516       .  S
C330        C789   1.505       .  S
N341        C346   1.357   1_465  A
N341        C345   1.363   1_565  A
N341        H373   1.039       .  S
N342        C349   1.357       .  A
N342        C350   1.360       .  A
N343        C348   1.362       .  A
N343        C347   1.357   1_655  A
N343        H374   1.038       .  S
N344        C351   1.364       .  A
N344        C352   1.364       .  A
C345        C353   1.384       .  A
C345        C361   1.426   1_545  A
C346        C362   1.433       .  A
C346        C354   1.389       .  A
C347        C355   1.389       .  A
C347        C364   1.432       .  A
C348        C363   1.424       .  A
C348        C356   1.384       .  A
C349        C361   1.434       .  A
C349        C357   1.387       .  A
C350        C364   1.419       .  A
C350        C358   1.383       .  A
C351        C359   1.384       .  A
C351        C362   1.430   1_565  A
C352        C360   1.391       .  A
C352        C363   1.447       .  A
C353        C354   1.378   1_455  A
C353        H365   1.077       .  S
C354        H366   1.083       .  S
C355        C356   1.379   1_455  A
C355        H367   1.083       .  S
C356        H368   1.079       .  S
C357        C358   1.372       .  A
C357        H369   1.079       .  S
C358        H370   1.079       .  S
C359        C360   1.379       .  A
C359        H371   1.081       .  S
C360        H372   1.082       .  S
C361       C1170   1.531   1_565  S
C362        C726   1.521       .  S
C363        C782   1.533       .  S
C364        C746   1.517       .  S
N375        C380   1.370       .  A
N375        C379   1.360   1_455  A
N375        H407   1.031   1_455  S
N376        C383   1.362       .  A
N376        C384   1.361       .  A
N377        C382   1.360   1_655  A
N377        C381   1.369       .  A
N377        H408   1.035       .  S
N378        C385   1.363       .  A
N378        C386   1.361       .  A
C379        C387   1.389       .  A
C379        C395   1.449       .  A
C380        C396   1.439       .  A
C380        C388   1.386       .  A
C381        C389   1.384       .  A
C381        C398   1.432       .  A
C382        C397   1.444       .  A
C382        C390   1.391   1_455  A
C383        C395   1.429       .  A
C383        C391   1.384       .  A
C384        C398   1.443       .  A
C384        C392   1.388       .  A
C385        C393   1.389       .  A
C385        C396   1.446       .  A
C386        C394   1.385       .  A
C386        C397   1.429       .  A
C387        C388   1.373   1_655  A
C387        H399   1.081       .  S
C388        H400   1.077       .  S
C389        C390   1.373       .  A
C389        H401   1.079       .  S
C390        H402   1.081       .  S
C391        C392   1.375       .  A
C391        H403   1.077       .  S
C392        H404   1.082       .  S
C393        C394   1.376       .  A
C393        H405   1.082       .  S
C394        H406   1.079       .  S
C395        C719   1.530       .  S
C396       C1161   1.547       .  S
C397        C737   1.520       .  S
C398        C773   1.540       .  S
C409        C410   1.390       .  A
C409        C414   1.389       .  A
C409       C1869   1.461       .  S
C410        C411   1.388       .  A
C410        H415   1.085       .  S
C411        C412   1.443       .  A
C411        C869   1.501       .  S
C412        C413   1.436       .  A
C412        H416   1.082       .  S
C413        C414   1.390       .  A
C414        H417   1.082       .  S
C418        C419   1.386       .  A
C418        C423   1.401       .  A
C418       C1882   1.466       .  S
C419        C420   1.388       .  A
C419        H424   1.085       .  S
C420        C421   1.430       .  A
C421        C422   1.436       .  A
C421        H425   1.082       .  S
C422        C423   1.402       .  A
C422        C966   1.498       .  S
C423        H426   1.084       .  S
C427        C428   1.383       .  A
C427        C432   1.406       .  A
C427       C1841   1.476       .  S
C428        C429   1.392       .  A
C428        H433   1.084       .  S
C429        C430   1.424       .  A
C430        C431   1.431       .  A
C430        H434   1.081       .  S
C431        C432   1.408       .  A
C431        C894   1.498       .  S
C432        H435   1.084       .  S
C436        C437   1.386       .  A
C436        C441   1.390       .  A
C436       C1854   1.460       .  S
C437        C438   1.387       .  A
C437        H442   1.085       .  S
C438        C439   1.432       .  A
C438        C814   1.485       .  S
C439        C440   1.432       .  A
C439        H443   1.081       .  S
C440        C441   1.403       .  A
C441        H444   1.085       .  S
C445        C446   1.395       .  A
C445        C450   1.397       .  A
C445       C1813   1.477       .  S
C446        C447   1.405       .  A
C446        H451   1.084       .  S
C447        C448   1.432       .  A
C447        C858   1.501       .  S
C448        C449   1.427       .  A
C448        H452   1.082       .  S
C449        C450   1.400       .  A
C450        H453   1.084       .  S
C454        C455   1.390       .  A
C454        C459   1.400       .  A
C454       C1826   1.469       .  S
C455        C456   1.403       .  A
C455        H460   1.085       .  S
C456        C457   1.423       .  A
C457        C458   1.428       .  A
C457        H461   1.083       .  S
C458        C459   1.393       .  A
C458        C906   1.488       .  S
C459        H462   1.085       .  S
C463        C464   1.386       .  A
C463        C468   1.397       .  A
C463       C1785   1.468       .  S
C464        C465   1.386       .  A
C464        H469   1.085       .  S
C465        C466   1.435       .  A
C465        C917   1.485       .  S
C466        C467   1.436       .  A
C466        H470   1.082       .  S
C467        C468   1.408       .  A
C468        H471   1.084       .  S
C472        C473   1.392       .  A
C472        C477   1.383       .  A
C472       C1798   1.461       .  S
C473        C474   1.388       .  A
C473        H478   1.085       .  S
C474        C475   1.451       .  A
C474       C1080   1.513       .  S
C475        C476   1.449       .  A
C475        H479   1.082       .  S
C476        C477   1.395       .  A
C477        H480   1.085       .  S
C481        C482   1.394       .  A
C481        C486   1.390       .  A
C481       C1757   1.465       .  S
C482        C483   1.386       .  A
C482        H487   1.082       .  S
C483        C484   1.444       .  A
C483        C942   1.498       .  S
C484        C485   1.437       .  A
C484        H488   1.082       .  S
C485        C486   1.392       .  A
C486        H489   1.087       .  S
C490        C491   1.389   1_565  A
C490        C495   1.394       .  A
C490       C1770   1.455       .  S
C491        C492   1.395       .  A
C491        H496   1.086       .  S
C492        C493   1.431       .  A
C493        C494   1.437       .  A
C493        H497   1.082       .  S
C494        C495   1.389   1_545  A
C494       C1116   1.490       .  S
C495        H498   1.085       .  S
C499        C500   1.401       .  A
C499        C504   1.395       .  A
C499       C1729   1.478       .  S
C500        C501   1.398       .  A
C500        H505   1.084       .  S
C501        C502   1.437       .  A
C501        C992   1.507       .  S
C502        C503   1.432       .  A
C502        H506   1.081       .  S
C503        C504   1.408       .  A
C504        H507   1.083       .  S
C508        C509   1.401       .  A
C508        C513   1.392       .  A
C508       C1742   1.488       .  S
C509        C510   1.414       .  A
C509        H514   1.083       .  S
C510        C511   1.431       .  A
C511        C512   1.427       .  A
C511        H515   1.082       .  S
C512        C513   1.397       .  A
C512       C1058   1.496       .  S
C513        H516   1.083       .  S
C517        C518   1.397       .  A
C517        C522   1.392       .  A
C517       C1701   1.463       .  S
C518        C519   1.402       .  A
C518        H523   1.085       .  S
C519        C520   1.425       .  A
C520        C521   1.428       .  A
C520        H524   1.083       .  S
C521        C522   1.389       .  A
C521        C848   1.480       .  S
C522        H525   1.085       .  S
C526        C527   1.386       .  A
C526        C531   1.403       .  A
C526       C1714   1.470   1_545  S
C527        C528   1.391       .  A
C527        H532   1.085       .  S
C528        C529   1.434       .  A
C529        C530   1.441       .  A
C529        H533   1.082       .  S
C530        C531   1.406       .  A
C530       C1024   1.517       .  S
C531        H534   1.084       .  S
C535        C536   1.393       .  A
C535        C540   1.392       .  A
C535       C1673   1.470       .  S
C536        C537   1.408       .  A
C536        H541   1.084       .  S
C537        C538   1.426       .  A
C538        C539   1.429       .  A
C538        H542   1.083       .  S
C539        C540   1.395       .  A
C539        C958   1.489       .  S
C540        H543   1.085       .  S
C544        C545   1.399       .  A
C544        C549   1.390       .  A
C544       C1686   1.473       .  S
C545        C546   1.405       .  A
C545        H550   1.084       .  S
C546        C547   1.424       .  A
C547        C548   1.424       .  A
C547        H551   1.083       .  S
C548        C549   1.394       .  A
C548       C1152   1.484       .  S
C549        H552   1.085       .  S
C553        C554   1.399       .  A
C553        C558   1.398       .  A
C553       C1645   1.477       .  S
C554        C555   1.403       .  A
C554        H559   1.085       .  S
C555        C556   1.416       .  A
C556        C557   1.422       .  A
C556        H560   1.083       .  S
C557        C558   1.396       .  A
C557        C822   1.474       .  S
C558        H561   1.085       .  S
C562        C563   1.378       .  A
C562        C567   1.397       .  A
C562       C1658   1.457       .  S
C563        C564   1.396       .  A
C563        H568   1.085       .  S
C564        C565   1.442       .  A
C565        C566   1.444       .  A
C565        H569   1.082       .  S
C566        C567   1.389       .  A
C566       C1072   1.511       .  S
C567        H570   1.084       .  S
C571        C572   1.394       .  A
C571        C576   1.387       .  A
C571       C1617   1.463       .  S
C572        C573   1.401       .  A
C572        H577   1.085       .  S
C573        C574   1.426       .  A
C574        C575   1.431       .  A
C574        H578   1.083       .  S
C575        C576   1.396       .  A
C575       C1106   1.489       .  S
C576        H579   1.085       .  S
C580        C581   1.395   1_565  A
C580        C585   1.398       .  A
C580       C1630   1.473       .  S
C581        C582   1.407       .  A
C581        H586   1.084       .  S
C582        C583   1.433       .  A
C583        C584   1.434       .  A
C583        H587   1.083       .  S
C584        C585   1.395   1_545  A
C584       C1182   1.501       .  S
C585        H588   1.085       .  S
C589        C590   1.381       .  A
C589        C594   1.402       .  A
C589       C1602   1.464       .  S
C590        C591   1.395       .  A
C590        H595   1.086       .  S
C591        C592   1.429       .  A
C592        C593   1.434       .  A
C592        H596   1.082       .  S
C593        C594   1.403       .  A
C593       C1127   1.500       .  S
C594        H597   1.084       .  S
C598        C599   1.392       .  A
C598        C603   1.398       .  A
C598       C1589   1.468       .  S
C599        C600   1.395       .  A
C599        H604   1.084       .  S
C600        C601   1.443       .  A
C600       C1218   1.502       .  S
C601        C602   1.439       .  A
C601        H605   1.079       .  S
C602        C603   1.403       .  A
C603        H606   1.085       .  S
C607        C608   1.385       .  A
C607        C612   1.397       .  A
C607       C1561   1.459       .  S
C608        C609   1.394       .  A
C608        H613   1.084       .  S
C609        C610   1.433       .  A
C610        C611   1.437       .  A
C610        H614   1.082       .  S
C611        C612   1.386       .  A
C611       C1032   1.495       .  S
C612        H615   1.084       .  S
C616        C617   1.387       .  A
C616        C621   1.389       .  A
C616       C1574   1.451       .  S
C617        C618   1.395       .  A
C617        H622   1.087       .  S
C618        C619   1.433       .  A
C619        C620   1.438       .  A
C619        H623   1.082       .  S
C620        C621   1.393       .  A
C620       C1193   1.489       .  S
C621        H624   1.085       .  S
C625        C626   1.377       .  A
C625        C630   1.395       .  A
C625       C1533   1.445       .  S
C626        C627   1.385       .  A
C626        H631   1.086       .  S
C627        C628   1.437       .  A
C627       C1194   1.474       .  S
C628        C629   1.429       .  A
C628        H632   1.082       .  S
C629        C630   1.395       .  A
C630        H633   1.086       .  S
C634        C635   1.374       .  A
C634        C639   1.392       .  A
C634       C1546   1.451       .  S
C635        C636   1.396       .  A
C635        H640   1.087       .  S
C636        C637   1.465       .  A
C637        C638   1.466       .  A
C637        H641   1.082       .  S
C638        C639   1.392       .  A
C638       C1079   1.552       .  S
C639        H642   1.084       .  S
C643        C644   1.404       .  A
C643        C648   1.400       .  A
C643       C1505   1.492       .  S
C644        C645   1.405   1_545  A
C644        H649   1.082   1_545  S
C645        C646   1.429       .  A
C646        C647   1.430   1_565  A
C646        H650   1.083       .  S
C647        C648   1.398       .  A
C647       C1186   1.498       .  S
C648        H651   1.082       .  S
C652        C653   1.383   1_545  A
C652        C657   1.401       .  A
C652       C1518   1.468       .  S
C653        C654   1.396       .  A
C653        H658   1.086       .  S
C654        C655   1.438       .  A
C655        C656   1.439   1_565  A
C655        H659   1.082       .  S
C656        C657   1.409       .  A
C656       C1154   1.514       .  S
C657        H660   1.085       .  S
C661        C662   1.385       .  A
C661        C666   1.400   1_565  A
C661       C1490   1.471       .  S
C662        C663   1.391       .  A
C662        H667   1.084       .  S
C663        C664   1.436   1_565  A
C664        C665   1.440       .  A
C664        H668   1.082       .  S
C665        C666   1.393       .  A
C665       C1031   1.505       .  S
C666        H669   1.084       .  S
C670        C671   1.383       .  A
C670        C675   1.377   1_545  A
C670       C1477   1.443   1_545  S
C671        C672   1.396       .  A
C671        H676   1.085       .  S
C672        C673   1.439       .  A
C672        C965   1.499       .  S
C673        C674   1.435   1_545  A
C673        H677   1.082       .  S
C674        C675   1.391       .  A
C675        H678   1.087       .  S
C679        C680   1.400       .  A
C679        C684   1.392       .  A
C679       C1449   1.473       .  S
C680        C681   1.405       .  A
C680        H685   1.084       .  S
C681        C682   1.437       .  A
C681       C1068   1.505       .  S
C682        C683   1.428       .  A
C682        H686   1.082       .  S
C683        C684   1.390       .  A
C684        H687   1.085       .  S
C688        C689   1.381       .  A
C688        C693   1.401       .  A
C688       C1462   1.462       .  S
C689        C690   1.396       .  A
C689        H694   1.086       .  S
C690        C691   1.434       .  A
C691        C692   1.434       .  A
C691        H695   1.082       .  S
C692        C693   1.407       .  A
C692        C944   1.513       .  S
C693        H696   1.084       .  S
C697        C698   1.374       .  A
C697        C702   1.403       .  A
C697       C1421   1.450       .  S
C698        C699   1.379       .  A
C698        H703   1.087       .  S
C699        C700   1.428       .  A
C699       C1128   1.463       .  S
C700        C701   1.425       .  A
C700        H704   1.083       .  S
C701        C702   1.406       .  A
C702        H705   1.084       .  S
C706        C707   1.378       .  A
C706        C711   1.383       .  A
C706       C1434   1.455       .  S
C707        C708   1.406       .  A
C707        H712   1.084       .  S
C708        C709   1.442       .  A
C709        C710   1.439       .  A
C709        H713   1.082       .  S
C710        C711   1.386       .  A
C710        C910   1.499       .  S
C711        H714   1.085       .  S
C715        C716   1.397       .  A
C715        C720   1.387   1_545  A
C715       C1393   1.464       .  S
C716        C717   1.400       .  A
C716        H721   1.084       .  S
C717        C718   1.436   1_545  A
C717       C1120   1.502       .  S
C718        C719   1.434       .  A
C718        H722   1.079       .  S
C719        C720   1.403       .  A
C720        H723   1.085       .  S
C724        C725   1.397       .  A
C724        C729   1.397       .  A
C724       C1406   1.478       .  S
C725        C726   1.401       .  A
C725        H730   1.084       .  S
C726        C727   1.423       .  A
C727        C728   1.431       .  A
C727        H731   1.083       .  S
C728        C729   1.404       .  A
C728        C990   1.492       .  S
C729        H732   1.084       .  S
C733        C734   1.390       .  A
C733        C738   1.400       .  A
C733       C1378   1.474       .  S
C734        C735   1.397       .  A
C734        H739   1.084       .  S
C735        C736   1.426       .  A
C735       C1104   1.474       .  S
C736        C737   1.421       .  A
C736        H740   1.082       .  S
C737        C738   1.401       .  A
C738        H741   1.085       .  S
C742        C743   1.393       .  A
C742        C747   1.380       .  A
C742       C1365   1.461       .  S
C743        C744   1.400       .  A
C743        H748   1.085       .  S
C744        C745   1.435       .  A
C744        C810   1.501       .  S
C745        C746   1.433       .  A
C745        H749   1.082       .  S
C746        C747   1.398       .  A
C747        H750   1.085       .  S
C751        C752   1.393       .  A
C751        C756   1.400       .  A
C751       C1337   1.481       .  S
C752        C753   1.406       .  A
C752        H757   1.085       .  S
C753        C754   1.438       .  A
C754        C755   1.439       .  A
C754        H758   1.082       .  S
C755        C756   1.403       .  A
C755        C954   1.517       .  S
C756        H759   1.084       .  S
C760        C761   1.396       .  A
C760        C765   1.396       .  A
C760       C1350   1.484       .  S
C761        C762   1.403       .  A
C761        H766   1.084       .  S
C762        C763   1.422       .  A
C763        C764   1.426       .  A
C763        H767   1.083       .  S
C764        C765   1.406       .  A
C764        C896   1.491       .  S
C765        H768   1.084       .  S
C769        C770   1.389       .  A
C769        C774   1.393       .  A
C769       C1309   1.468       .  S
C770        C771   1.402       .  A
C770        H775   1.084       .  S
C771        C772   1.441       .  A
C771        C918   1.502       .  S
C772        C773   1.436       .  A
C772        H776   1.082       .  S
C773        C774   1.400       .  A
C774        H777   1.085       .  S
C778        C779   1.400       .  A
C778        C783   1.384       .  A
C778       C1322   1.466       .  S
C779        C780   1.400       .  A
C779        H784   1.085       .  S
C780        C781   1.444       .  A
C780        C870   1.518       .  S
C781        C782   1.446       .  A
C781        H785   1.081       .  S
C782        C783   1.400       .  A
C783        H786   1.085       .  S
C787        C788   1.388       .  A
C787        C792   1.387       .  A
C787       C1294   1.453       .  S
C788        C789   1.396       .  A
C788        H793   1.086       .  S
C789        C790   1.425       .  A
C790        C791   1.430       .  A
C790        H794   1.082       .  S
C791        C792   1.392       .  A
C791        C846   1.478       .  S
C792        H795   1.086       .  S
C796        C797   1.394       .  A
C796        C801   1.388       .  A
C796       C1281   1.464       .  S
C797        C798   1.391       .  A
C797        H802   1.085       .  S
C798        C799   1.434       .  A
C798        C862   1.489       .  S
C799        C800   1.430       .  A
C799        H803   1.082       .  S
C800        C801   1.397       .  A
C801        H804   1.084       .  S
O805       Mg807   2.132       .  S
O805       Mg813   2.154       .  S
O805        C840   1.243       .  S
C806        H845   1.081       .  S
C806        O819   1.244       .  S
C806        O843   1.275       .  A
Mg807       O836   2.058       .  S
Mg807       O851   2.335       .  S
Mg807       O847   2.294       .  S
Mg807       O818   2.432       .  S
O808       Mg850   2.129       .  S
O808       Mg833   2.096       .  S
O808        C829   1.238       .  S
O809        C840   1.276       .  A
O809       Mg833   2.306       .  S
C810        O812   1.277       .  A
C810        O824   1.287       .  A
O811        C839   1.274       .  A
O811       Mg813   2.318       .  S
O812       Mg844   2.291       .  S
Mg813       O819   2.100       .  S
Mg813       O827   2.277       .  S
Mg813       O815   2.371       .  S
C814        O852   1.281       .  A
C814        O820   1.275       .  A
O815        C822   1.283       .  A
H816        C829   1.081       .  S
C817        H842   1.081       .  S
C817        O831   1.244       .  S
C817        O832   1.279       .  A
O818        C841   1.292       .  A
O819       Mg833   2.114       .  S
O820       Mg850   2.343       .  S
C821       C1008   1.479       .  S
C821        O834   1.271       .  A
C821        O826   1.275       .  A
C822        O849   1.269       .  A
Mg823       O830   2.080       .  S
Mg823       O831   2.107       .  S
Mg823       O824   2.368       .  S
Mg823       O825   2.314       .  S
Mg823       O852   2.263       .  S
O825        C829   1.272       .  A
O826       Mg833   2.289       .  S
O827        C846   1.275       .  A
O828        C848   1.293       .  A
O828       Mg844   2.443       .  S
O830       Mg844   2.119       .  S
O830        C841   1.239       .  S
O831       Mg850   2.132       .  S
O832       Mg844   2.327       .  S
Mg833       O849   2.229       .  S
O834       Mg850   2.272       .  S
H835        C840   1.081       .  S
O836       Mg844   2.119       .  S
O836        C839   1.240       .  S
H837        C839   1.081       .  S
H838        C841   1.080       .  S
O843       Mg850   2.293       .  S
C846        O851   1.278       .  A
O847        C848   1.281       .  A
O853       Mg855   2.156       .  S
O853       Mg861   2.094       .  S
O853        C888   1.243       .  S
C854        H893   1.079       .  S
C854        O867   1.244       .  S
C854        O891   1.293       .  A
Mg855       O884   2.145       .  S
Mg855       O899   2.393       .  S
Mg855       O895   2.310       .  S
Mg855       O866   2.283       .  S
O856       Mg898   2.044       .  S
O856       Mg881   2.102       .  S
O856        C877   1.239       .  S
O857        C888   1.281       .  A
O857       Mg881   2.347       .  S
C858        O860   1.279       .  A
C858        O872   1.284       .  A
O859        C887   1.279       .  A
O859       Mg861   2.355       .  S
O860       Mg892   2.323       .  S
Mg861       O867   2.100       .  S
Mg861       O875   2.282       .  S
Mg861       O863   2.487       .  S
C862        O900   1.279       .  A
C862        O868   1.285       .  A
O863        C870   1.296       .  A
H864        C877   1.081       .  S
C865        H890   1.081       .  S
C865        O880   1.276       .  A
C865        O879   1.276       .  A
O866        C889   1.273       .  A
O867       Mg881   2.070       .  S
O868       Mg898   2.368       .  S
C869        O882   1.281       .  A
C869        O874   1.299       .  A
C870        O897   1.277       .  A
Mg871       O878   2.071       .  S
Mg871       O872   2.326       .  S
Mg871       O873   2.295       .  S
Mg871       O900   2.277       .  S
Mg871       O879   2.249       .  S
O873        C877   1.270       .  A
O874       Mg881   2.469       .  S
O875        C894   1.281       .  A
O876        C896   1.278       .  A
O876       Mg892   2.291       .  S
O878       Mg892   2.115       .  S
O878        C889   1.244       .  S
O879       Mg898   2.194       .  S
O880       Mg892   2.293       .  S
Mg881       O897   2.266       .  S
O882       Mg898   2.324       .  S
H883        C888   1.081       .  S
O884       Mg892   2.155       .  S
O884        C887   1.241       .  S
H885        C887   1.081       .  S
H886        C889   1.081       .  S
O891       Mg898   2.445       .  S
C894        O899   1.285       .  A
O895        C896   1.279       .  A
O901       Mg909   2.124       .  S
O901        C936   1.250       .  S
O901       Mg903   2.022       .  S
C902        H941   1.081       .  S
C902        O915   1.237       .  S
C902        O939   1.289       .  A
Mg903       O932   1.992       .  S
Mg903       O947   2.312       .  S
Mg903       O943   2.271       .  S
Mg903       O914   2.189       .  S
O904       Mg946   2.086       .  S
O904       Mg929   2.152       .  S
O904        C925   1.241       .  S
O905        C936   1.283       .  A
O905       Mg929   2.331       .  S
C906        O908   1.282       .  A
C906        O920   1.296       .  A
O907        C935   1.278       .  A
O907       Mg909   2.342       .  S
O908       Mg940   2.278       .  S
Mg909       O915   2.067       .  S
Mg909       O923   2.243       .  S
Mg909       O911   2.355       .  S
C910        O948   1.276       .  A
C910        O916   1.287       .  A
O911        C918   1.285       .  A
H912        C925   1.081       .  S
C913        H938   1.081       .  S
C913        O927   1.244       .  S
C913        O928   1.297       .  A
O914        C937   1.267       .  A
O915       Mg929   2.107       .  S
O916       Mg946   2.367       .  S
C917        O930   1.287       .  A
C917        O922   1.289       .  A
C918        O945   1.274       .  A
Mg919       O926   2.075       .  S
Mg919       O927   2.141       .  S
Mg919       O920   2.480       .  S
Mg919       O921   2.356       .  S
Mg919       O948   2.290       .  S
O921        C925   1.279       .  A
O922       Mg929   2.431       .  S
O923        C942   1.275       .  A
O924        C944   1.282       .  A
O924       Mg940   2.343       .  S
O926       Mg940   2.023       .  S
O926        C937   1.238       .  S
O927       Mg946   2.120       .  S
O928       Mg940   2.451       .  S
Mg929       O945   2.282       .  S
O930       Mg946   2.358       .  S
H931        C936   1.081       .  S
O932       Mg940   2.139       .  S
O932        C935   1.241       .  S
H933        C935   1.081       .  S
H934        C937   1.080       .  S
O939       Mg946   2.416       .  S
C942        O947   1.300       .  A
O943        C944   1.292       .  A
O949       Mg951   2.116       .  S
O949       Mg957   2.122       .  S
O949        C984   1.238       .  S
C950        H989   1.081       .  S
C950        O963   1.241       .  S
C950        O987   1.290       .  A
Mg951       O980   2.142       .  S
Mg951       O995   2.336       .  S
Mg951       O991   2.264       .  S
Mg951       O962   2.295       .  S
O952       Mg994   2.100       .  S
O952       Mg977   2.139       .  S
O952        C973   1.244       .  S
O953        C984   1.291       .  A
O953       Mg977   2.425       .  S
C954        O956   1.286       .  A
C954        O968   1.284       .  A
O955        C983   1.281       .  A
O955       Mg957   2.339       .  S
O956       Mg988   2.373       .  S
Mg957       O963   2.111       .  S
Mg957       O971   2.280       .  S
Mg957       O959   2.462       .  S
C958        O996   1.272       .  A
C958        O964   1.278       .  A
O959        C966   1.293       .  A
H960        C973   1.081       .  S
C961        H986   1.081       .  S
C961        O975   1.249       .  S
C961        O976   1.283       .  A
O962        C985   1.271       .  A
O963       Mg977   2.080       .  S
O964       Mg994   2.323       .  S
C965        O978   1.281       .  A
C965        O970   1.287       .  A
C966        O993   1.285       .  A
Mg967       O975   2.160       .  S
Mg967       O968   2.342       .  S
Mg967       O969   2.329       .  S
Mg967       O996   2.268       .  S
Mg967       O974   2.128       .  S
O969        C973   1.277       .  A
O970       Mg977   2.405       .  S
O971        C990   1.277       .  A
O972        C992   1.297       .  A
O972       Mg988   2.430       .  S
O974        C985   1.269       .  A
O974       Mg988   2.161       .  S
O975       Mg994   2.126       .  S
O976       Mg988   2.324       .  S
Mg977       O993   2.348       .  S
O978       Mg994   2.350       .  S
H979        C984   1.081       .  S
O980       Mg988   2.144       .  S
O980        C983   1.245       .  S
H981        C983   1.081       .  S
H982        C985   1.081       .  S
O987       Mg994   2.420       .  S
C990        O995   1.281       .  A
O991        C992   1.277       .  A
C997        C998   1.399       .  A
C997       C1002   1.393       .  A
C997       C1266   1.487       .  S
C998        C999   1.399       .  A
C998       H1003   1.083       .  S
C999       C1000   1.435       .  A
C999       C1056   1.510       .  S
C1000      C1001   1.437       .  A
C1000      H1004   1.082       .  S
C1001      C1002   1.406       .  A
C1002      H1005   1.084       .  S
C1006      C1007   1.393       .  A
C1006      C1011   1.395       .  A
C1006      C1253   1.468       .  S
C1007      C1008   1.401       .  A
C1007      H1012   1.085       .  S
C1008      C1009   1.422       .  A
C1009      C1010   1.417       .  A
C1009      H1013   1.083       .  S
C1010      C1011   1.400       .  A
C1011      H1014   1.085       .  S
O1015     Mg1017   2.097       .  S
O1015     Mg1023   2.067       .  S
O1015      C1050   1.240       .  S
C1016      H1055   1.081       .  S
C1016      O1029   1.243       .  S
C1016      O1053   1.278       .  A
Mg1017     O1046   2.082       .  S
Mg1017     O1061   2.446       .  S
Mg1017     O1057   2.225       .  S
Mg1017     O1028   2.341       .  S
O1018     Mg1060   2.119       .  S
O1018     Mg1043   2.126       .  S
O1018      C1039   1.245       .  S
O1019      C1050   1.292       .  A
O1019     Mg1043   2.450       .  S
C1020      C1172   1.485       .  S
C1020      O1022   1.274       .  A
C1020      O1034   1.285       .  A
O1021      C1049   1.280       .  A
O1021     Mg1023   2.345       .  S
O1022     Mg1054   2.267       .  S
Mg1023     O1029   2.123       .  S
Mg1023     O1037   2.251       .  S
Mg1023     O1025   2.478       .  S
C1024      O1062   1.281       .  A
C1024      O1030   1.293       .  A
O1025      C1032   1.295       .  A
H1026      C1039   1.081       .  S
C1027      H1052   1.081       .  S
C1027      O1041   1.245       .  S
C1027      O1042   1.276       .  A
O1028      C1051   1.276       .  A
O1029     Mg1043   2.033       .  S
O1030     Mg1060   2.400       .  S
C1031      O1044   1.283       .  A
C1031      O1036   1.281       .  A
C1032      O1059   1.281       .  A
Mg1033     O1040   2.144       .  S
Mg1033     O1041   2.109       .  S
Mg1033     O1034   2.341       .  S
Mg1033     O1035   2.312       .  S
Mg1033     O1062   2.321       .  S
O1035      C1039   1.279       .  A
O1036     Mg1043   2.395       .  S
O1037      C1056   1.278       .  A
O1038      C1058   1.282       .  A
O1038     Mg1054   2.407       .  S
O1040     Mg1054   2.132       .  S
O1040      C1051   1.239       .  S
O1041     Mg1060   2.093       .  S
O1042     Mg1054   2.297       .  S
Mg1043     O1059   2.324       .  S
O1044     Mg1060   2.307       .  S
H1045      C1050   1.080       .  S
O1046     Mg1054   2.149       .  S
O1046      C1049   1.242       .  S
H1047      C1049   1.081       .  S
H1048      C1051   1.081       .  S
O1053     Mg1060   2.328       .  S
C1056      O1061   1.286       .  A
O1057      C1058   1.275       .  A
O1063     Mg1065   2.096       .  S
O1063     Mg1071   2.070       .  S
O1063      C1098   1.235       .  S
C1064      H1103   1.080       .  S
C1064      O1077   1.235       .  S
C1064      O1101   1.271       .  A
Mg1065     O1094   2.156       .  S
Mg1065     O1109   2.355       .  S
Mg1065     O1105   2.272       .  S
Mg1065     O1076   2.296       .  S
O1066      C1087   1.245       .  S
O1066     Mg1108   1.992       .  S
O1066     Mg1091   2.014       .  S
O1067      C1098   1.272       .  A
O1067     Mg1091   2.222       .  S
C1068      O1070   1.279       .  A
C1068      O1082   1.290       .  A
O1069      C1097   1.280       .  A
O1069     Mg1071   2.335       .  S
O1070     Mg1102   2.306       .  S
Mg1071     O1077   2.090       .  S
Mg1071     O1085   2.229       .  S
Mg1071     O1073   2.414       .  S
C1072      O1110   1.279       .  A
C1072      O1078   1.297       .  A
O1073      C1080   1.289       .  A
H1074      C1087   1.081       .  S
C1075      H1100   1.081       .  S
C1075      O1089   1.248       .  S
C1075      O1090   1.282       .  A
O1076      C1099   1.270       .  A
O1077     Mg1091   1.930       .  S
O1078     Mg1108   2.284       .  S
C1079      O1092   1.290       .  A
C1079      O1084   1.314       .  A
C1080      O1107   1.294       .  A
Mg1081     O1089   2.148       .  S
Mg1081     O1082   2.374       .  S
Mg1081     O1083   2.336       .  S
Mg1081     O1110   2.266       .  S
Mg1081     O1088   2.143       .  S
O1083      C1087   1.279       .  A
O1084     Mg1091   2.376       .  S
O1085      C1104   1.273       .  A
O1086      C1106   1.285       .  A
O1086     Mg1102   2.336       .  S
O1088      C1099   1.268       .  A
O1088     Mg1102   2.169       .  S
O1089     Mg1108   2.010       .  S
O1090     Mg1102   2.317       .  S
Mg1091     O1107   2.243       .  S
O1092     Mg1108   2.251       .  S
H1093      C1098   1.081       .  S
O1094     Mg1102   2.134       .  S
O1094      C1097   1.243       .  S
H1095      C1097   1.081       .  S
H1096      C1099   1.081       .  S
O1101     Mg1108   2.222       .  S
C1104      O1109   1.279       .  A
O1105      C1106   1.275       .  A
O1111     Mg1113   2.086       .  S
O1111     Mg1119   2.135       .  S
O1111      C1146   1.245       .  S
C1112      H1151   1.081       .  S
C1112      O1125   1.241       .  S
C1112      O1149   1.275       .  A
Mg1113     O1142   2.084       .  S
Mg1113     O1157   2.289       .  S
Mg1113     O1153   2.225       .  S
Mg1113     O1124   2.312       .  S
O1114     Mg1156   2.103       .  S
O1114     Mg1139   2.101       .  S
O1114      C1135   1.244       .  S
O1115      C1146   1.277       .  A
O1115     Mg1139   2.305       .  S
C1116      O1118   1.280       .  A
C1116      O1130   1.276       .  A
O1117      C1145   1.274       .  A
O1117     Mg1119   2.291       .  S
O1118     Mg1150   2.278       .  S
Mg1119     O1125   2.111       .  S
Mg1119     O1133   2.281       .  S
Mg1119     O1121   2.312       .  S
C1120      O1158   1.275       .  A
C1120      O1126   1.287       .  A
O1121      C1128   1.273       .  A
H1122      C1135   1.081       .  S
C1123      H1148   1.081       .  S
C1123      O1137   1.248       .  S
C1123      O1138   1.282       .  A
O1124      C1147   1.275       .  A
O1125     Mg1139   2.103       .  S
O1126     Mg1156   2.383       .  S
C1127      O1140   1.280       .  A
C1127      O1132   1.283       .  A
C1128      O1155   1.273       .  A
Mg1129     O1136   2.117       .  S
Mg1129     O1137   2.123       .  S
Mg1129     O1130   2.316       .  S
Mg1129     O1131   2.301       .  S
Mg1129     O1158   2.278       .  S
O1131      C1135   1.277       .  A
O1132     Mg1139   2.386       .  S
O1133      C1152   1.271       .  A
O1134      C1154   1.296       .  A
O1134     Mg1150   2.497       .  S
O1136     Mg1150   2.103       .  S
O1136      C1147   1.240       .  S
O1137     Mg1156   2.116       .  S
O1138     Mg1150   2.337       .  S
Mg1139     O1155   2.238       .  S
O1140     Mg1156   2.295       .  S
H1141      C1146   1.081       .  S
O1142     Mg1150   2.086       .  S
O1142      C1145   1.243       .  S
H1143      C1145   1.081       .  S
H1144      C1147   1.081       .  S
O1149     Mg1156   2.312       .  S
C1152      O1157   1.275       .  A
O1153      C1154   1.269       .  A
C1159      C1160   1.396       .  A
C1159      C1164   1.397       .  A
C1159      C1225   1.481       .  S
C1160      C1161   1.409       .  A
C1160      H1165   1.083       .  S
C1161      C1162   1.446       .  A
C1162      C1163   1.440       .  A
C1162      H1166   1.081       .  S
C1163      C1164   1.394       .  A
C1163      C1220   1.517   1_565  S
C1164      H1167   1.083       .  S
C1168      C1169   1.397   1_545  A
C1168      C1173   1.386       .  A
C1168      C1238   1.467   1_545  S
C1169      C1170   1.409   1_565  A
C1169      H1174   1.084       .  S
C1170      C1171   1.429       .  A
C1171      C1172   1.432       .  A
C1171      H1175   1.079       .  S
C1172      C1173   1.394       .  A
C1173      H1176   1.085       .  S
O1177     Mg1179   2.125       .  S
O1177     Mg1185   2.113       .  S
O1177      C1212   1.244       .  S
C1178      H1217   1.081       .  S
C1178      O1191   1.244       .  S
C1178      O1215   1.276       .  A
Mg1179     O1208   2.121       .  S
Mg1179     O1223   2.413       .  S
Mg1179     O1219   2.341       .  S
Mg1179     O1190   2.302       .  S
O1180     Mg1222   2.119       .  S
O1180     Mg1205   2.068       .  S
O1180      C1201   1.245       .  S
O1181      C1212   1.278       .  A
O1181     Mg1205   2.319       .  S
C1182      O1184   1.282       .  A
C1182      O1196   1.281       .  A
O1183      C1211   1.276       .  A
O1183     Mg1185   2.307       .  S
O1184     Mg1216   2.317       .  S
Mg1185     O1191   2.106       .  S
Mg1185     O1199   2.259       .  S
Mg1185     O1187   2.377       .  S
C1186      O1224   1.276       .  A
C1186      O1192   1.281       .  A
O1187      C1194   1.284       .  A
H1188      C1201   1.081       .  S
C1189      H1214   1.081       .  S
C1189      O1203   1.244       .  S
C1189      O1204   1.275       .  A
O1190      C1213   1.277       .  A
O1191     Mg1205   2.112       .  S
O1192     Mg1222   2.324       .  S
C1193      O1206   1.274       .  A
C1193      O1198   1.281       .  A
C1194      O1221   1.268       .  A
Mg1195     O1202   2.104       .  S
Mg1195     O1203   2.124       .  S
Mg1195     O1196   2.330       .  S
Mg1195     O1197   2.290       .  S
Mg1195     O1224   2.294       .  S
O1197      C1201   1.275       .  A
O1198     Mg1205   2.355       .  S
O1199      C1218   1.276       .  A
O1200      C1220   1.290       .  A
O1200     Mg1216   2.376       .  S
O1202     Mg1216   2.124       .  S
O1202      C1213   1.245       .  S
O1203     Mg1222   2.071       .  S
O1204     Mg1216   2.289       .  S
Mg1205     O1221   2.219       .  S
O1206     Mg1222   2.274       .  S
H1207      C1212   1.081       .  S
O1208     Mg1216   2.105       .  S
O1208      C1211   1.244       .  S
H1209      C1211   1.081       .  S
H1210      C1213   1.081       .  S
O1215     Mg1222   2.304       .  S
C1218      O1223   1.293       .  A
O1219      C1220   1.284       .  A
C1225      C1226   1.412       .  A
C1225      C1230   1.401       .  A
C1226      C1227   1.402       .  A
C1226      N1231   1.433       .  S
C1227      C1228   1.402       .  A
C1227      H1232   1.084       .  S
C1228      C1229   1.410       .  A
C1228      C1233   1.472       .  S
C1229      C1230   1.395       .  A
C1229      N1234   1.433       .  S
C1230      H1235   1.083       .  S
N1231      H1251   1.046       .  S
N1231      H1252   1.046       .  S
C1233      C1236   1.410       .  A
C1233      C1240   1.402       .  A
N1234      H1249   1.046       .  S
N1234      H1250   1.045       .  S
C1236      C1237   1.397       .  A
C1236      H1241   1.084       .  S
C1237      C1238   1.400       .  A
C1237      N1242   1.432   1_565  S
C1238      C1239   1.405       .  A
C1239      C1240   1.399       .  A
C1239      H1243   1.080       .  S
C1240      N1244   1.432       .  S
N1242      H1245   1.045       .  S
N1242      H1246   1.046       .  S
N1244      H1247   1.046       .  S
N1244      H1248   1.046       .  S
C1253      C1254   1.399       .  A
C1253      C1258   1.406       .  A
C1254      C1255   1.394       .  A
C1254      N1259   1.433       .  S
C1255      C1256   1.411       .  A
C1255      H1260   1.083       .  S
C1256      C1257   1.405       .  A
C1256      C1261   1.477       .  S
C1257      C1258   1.400       .  A
C1257      N1262   1.431       .  S
C1258      H1263   1.083       .  S
N1259      H1279   1.046       .  S
N1259      H1280   1.045       .  S
C1261      C1264   1.403       .  A
C1261      C1268   1.407   1_556  A
N1262      H1277   1.045       .  S
N1262      H1278   1.046   1_556  S
C1264      C1265   1.402       .  A
C1264      H1269   1.078       .  S
C1265      C1266   1.415       .  A
C1265      N1270   1.437       .  S
C1266      C1267   1.404   1_556  A
C1267      C1268   1.397       .  A
C1267      H1271   1.082       .  S
C1268      N1272   1.432       .  S
N1270      H1273   1.046       .  S
N1270      H1274   1.045       .  S
N1272      H1275   1.046       .  S
N1272      H1276   1.046       .  S
C1281      C1282   1.410       .  A
C1281      C1286   1.404       .  A
C1282      C1283   1.391       .  A
C1282      N1287   1.433       .  S
C1283      C1284   1.398       .  A
C1283      H1288   1.085       .  S
C1284      C1285   1.402       .  A
C1284      C1289   1.454       .  S
C1285      C1286   1.395       .  A
C1285      N1290   1.432       .  S
C1286      H1291   1.084       .  S
N1287      H1307   1.045       .  S
N1287      H1308   1.045       .  S
C1289      C1292   1.393       .  A
C1289      C1296   1.410       .  A
N1290      H1305   1.045       .  S
N1290      H1306   1.045       .  S
C1292      C1293   1.394       .  A
C1292      H1297   1.079       .  S
C1293      C1294   1.408       .  A
C1293      N1298   1.432       .  S
C1294      C1295   1.395       .  A
C1295      C1296   1.390       .  A
C1295      H1299   1.084       .  S
C1296      N1300   1.434       .  S
N1298      H1301   1.044       .  S
N1298      H1302   1.046       .  S
N1300      H1303   1.044       .  S
N1300      H1304   1.045       .  S
C1309      C1310   1.400       .  A
C1309      C1314   1.407       .  A
C1310      C1311   1.394       .  A
C1310      N1315   1.433       .  S
C1311      C1312   1.411       .  A
C1311      H1316   1.084       .  S
C1312      C1313   1.403       .  A
C1312      C1317   1.474       .  S
C1313      C1314   1.399       .  A
C1313      N1318   1.432       .  S
C1314      H1319   1.083       .  S
N1315      H1335   1.046       .  S
N1315      H1336   1.045       .  S
C1317      C1320   1.410       .  A
C1317      C1324   1.404       .  A
N1318      H1333   1.046       .  S
N1318      H1334   1.045       .  S
C1320      C1321   1.400       .  A
C1320      H1325   1.084       .  S
C1321      C1322   1.403       .  A
C1321      N1326   1.432       .  S
C1322      C1323   1.403       .  A
C1323      C1324   1.397       .  A
C1323      H1327   1.084       .  S
C1324      N1328   1.431       .  S
N1326      H1329   1.046       .  S
N1326      H1330   1.046       .  S
N1328      H1331   1.046       .  S
N1328      H1332   1.045       .  S
C1337      C1338   1.411       .  A
C1337      C1342   1.400       .  A
C1338      C1339   1.404       .  A
C1338      N1343   1.432       .  S
C1339      C1340   1.404       .  A
C1339      H1344   1.084       .  S
C1340      C1341   1.417       .  A
C1340      C1345   1.494       .  S
C1341      C1342   1.398       .  A
C1341      N1346   1.433   1_556  S
C1342      H1347   1.083       .  S
N1343      H1363   1.045       .  S
N1343      H1364   1.046       .  S
C1345      C1348   1.402       .  A
C1345      C1352   1.420       .  A
N1346      H1361   1.046       .  S
N1346      H1362   1.046   1_554  S
C1348      C1349   1.402       .  A
C1348      H1353   1.084       .  S
C1349      C1350   1.414       .  A
C1349      N1354   1.431       .  S
C1350      C1351   1.398       .  A
C1351      C1352   1.397       .  A
C1351      H1355   1.083       .  S
C1352      N1356   1.433       .  S
N1354      H1357   1.046       .  S
N1354      H1358   1.045       .  S
N1356      H1359   1.046       .  S
N1356      H1360   1.045       .  S
C1365      C1366   1.402       .  A
C1365      C1370   1.403       .  A
C1366      C1367   1.393   1_455  A
C1366      N1371   1.433       .  S
C1367      C1368   1.408       .  A
C1367      H1372   1.083       .  S
C1368      C1369   1.404       .  A
C1368      C1373   1.471       .  S
C1369      C1370   1.400   1_655  A
C1369      N1374   1.434       .  S
C1370      H1375   1.084       .  S
N1371      H1391   1.046       .  S
N1371      H1392   1.046       .  S
C1373      C1376   1.410   1_655  A
C1373      C1380   1.402       .  A
N1374      H1389   1.046       .  S
N1374      H1390   1.045       .  S
C1376      C1377   1.396       .  A
C1376      H1381   1.084       .  S
C1377      C1378   1.404       .  A
C1377      N1382   1.433       .  S
C1378      C1379   1.406       .  A
C1379      C1380   1.395   1_455  A
C1379      H1383   1.081   1_455  S
C1380      N1384   1.434       .  S
N1382      H1385   1.046       .  S
N1382      H1386   1.045       .  S
N1384      H1387   1.046       .  S
N1384      H1388   1.045       .  S
C1393      C1394   1.399       .  A
C1393      C1398   1.406       .  A
C1394      C1395   1.397       .  A
C1394      N1399   1.432   1_545  S
C1395      C1396   1.409   1_655  A
C1395      H1400   1.084       .  S
C1396      C1397   1.406       .  A
C1396      C1401   1.473   1_455  S
C1397      C1398   1.399   1_455  A
C1397      N1402   1.434       .  S
C1398      H1403   1.084       .  S
N1399      H1419   1.045       .  S
N1399      H1420   1.046       .  S
C1401      C1404   1.400   1_655  A
C1401      C1408   1.414       .  A
N1402      H1417   1.046       .  S
N1402      H1418   1.046       .  S
C1404      C1405   1.402   1_455  A
C1404      H1409   1.084       .  S
C1405      C1406   1.414       .  A
C1405      N1410   1.432   1_655  S
C1406      C1407   1.397       .  A
C1407      C1408   1.394       .  A
C1407      H1411   1.084       .  S
C1408      N1412   1.434       .  S
N1410      H1413   1.046       .  S
N1410      H1414   1.045       .  S
N1412      H1415   1.046       .  S
N1412      H1416   1.043       .  S
C1421      C1422   1.408       .  A
C1421      C1426   1.392       .  A
C1422      C1423   1.393       .  A
C1422      N1427   1.431       .  S
C1423      C1424   1.393       .  A
C1423      H1428   1.080       .  S
C1424      C1425   1.410       .  A
C1424      C1429   1.454       .  S
C1425      C1426   1.390       .  A
C1425      N1430   1.432       .  S
C1426      H1431   1.084       .  S
N1427      H1447   1.045       .  S
N1427      H1448   1.043       .  S
C1429      C1432   1.407       .  A
C1429      C1436   1.396       .  A
N1430      H1445   1.046       .  S
N1430      H1446   1.045       .  S
C1432      C1433   1.393       .  A
C1432      H1437   1.085       .  S
C1433      C1434   1.396       .  A
C1433      N1438   1.433       .  S
C1434      C1435   1.406       .  A
C1435      C1436   1.393       .  A
C1435      H1439   1.084       .  S
C1436      N1440   1.431       .  S
N1438      H1441   1.044       .  S
N1438      H1442   1.046       .  S
N1440      H1443   1.045       .  S
N1440      H1444   1.045       .  S
C1449      C1450   1.417       .  A
C1449      C1454   1.395       .  A
C1450      C1451   1.400   1_554  A
C1450      N1455   1.433       .  S
C1451      C1452   1.395   1_556  A
C1451      H1456   1.083       .  S
C1452      C1453   1.413       .  A
C1452      C1457   1.463   1_554  S
C1453      C1454   1.391       .  A
C1453      N1458   1.434       .  S
C1454      H1459   1.084       .  S
N1455      H1475   1.045   1_554  S
N1455      H1476   1.046   1_554  S
C1457      C1460   1.402   1_556  A
C1457      C1464   1.406       .  A
N1458      H1473   1.046       .  S
N1458      H1474   1.043       .  S
C1460      C1461   1.395       .  A
C1460      H1465   1.085       .  S
C1461      C1462   1.405       .  A
C1461      N1466   1.434       .  S
C1462      C1463   1.402       .  A
C1463      C1464   1.397   1_554  A
C1463      H1467   1.083   1_554  S
C1464      N1468   1.431       .  S
N1466      H1469   1.046       .  S
N1466      H1470   1.045       .  S
N1468      H1471   1.045       .  S
N1468      H1472   1.046       .  S
C1477      C1478   1.403       .  A
C1477      C1482   1.393   1_565  A
C1478      C1479   1.387       .  A
C1478      N1483   1.433       .  S
C1479      C1480   1.392       .  A
C1479      H1484   1.077       .  S
C1480      C1481   1.413       .  A
C1480      C1485   1.450       .  S
C1481      C1482   1.393   1_565  A
C1481      N1486   1.439   1_565  S
C1482      H1487   1.084       .  S
N1483      H1503   1.046       .  S
N1483      H1504   1.043       .  S
C1485      C1488   1.392       .  A
C1485      C1492   1.400       .  A
N1486      H1501   1.045       .  S
N1486      H1502   1.046       .  S
C1488      C1489   1.390       .  A
C1488      H1493   1.081       .  S
C1489      C1490   1.418       .  A
C1489      N1494   1.434       .  S
C1490      C1491   1.404       .  A
C1491      C1492   1.390       .  A
C1491      H1495   1.083       .  S
C1492      N1496   1.432       .  S
N1494      H1497   1.046       .  S
N1494      H1498   1.046       .  S
N1496      H1499   1.044       .  S
N1496      H1500   1.046       .  S
C1505      C1506   1.416       .  A
C1505      C1510   1.405       .  A
C1506      C1507   1.405       .  A
C1506      N1511   1.433       .  S
C1507      C1508   1.402       .  A
C1507      H1512   1.083   1_554  S
C1508      C1509   1.407       .  A
C1508      C1513   1.471       .  S
C1509      C1510   1.390       .  A
C1509      N1514   1.434       .  S
C1510      H1515   1.081       .  S
N1511      H1531   1.045   1_554  S
N1511      H1532   1.045   1_554  S
C1513      C1516   1.403       .  A
C1513      C1520   1.412       .  A
N1514      H1529   1.045       .  S
N1514      H1530   1.046       .  S
C1516      C1517   1.403       .  A
C1516      H1521   1.083       .  S
C1517      C1518   1.407       .  A
C1517      N1522   1.431       .  S
C1518      C1519   1.396       .  A
C1519      C1520   1.394       .  A
C1519      H1523   1.084   1_545  S
C1520      N1524   1.432   1_545  S
N1522      H1525   1.045       .  S
N1522      H1526   1.046       .  S
N1524      H1527   1.043       .  S
N1524      H1528   1.046       .  S
C1533      C1534   1.400       .  A
C1533      C1538   1.394       .  A
C1534      C1535   1.386       .  A
C1534      N1539   1.429       .  S
C1535      C1536   1.389       .  A
C1535      H1540   1.077       .  S
C1536      C1537   1.410       .  A
C1536      C1541   1.446       .  S
C1537      C1538   1.393       .  A
C1537      N1542   1.433       .  S
C1538      H1543   1.084       .  S
N1539      H1559   1.045       .  S
N1539      H1560   1.044       .  S
C1541      C1544   1.394       .  A
C1541      C1548   1.407       .  A
N1542      H1557   1.045       .  S
N1542      H1558   1.046       .  S
C1544      C1545   1.393       .  A
C1544      H1549   1.084       .  S
C1545      C1546   1.406       .  A
C1545      N1550   1.433       .  S
C1546      C1547   1.396       .  A
C1547      C1548   1.389       .  A
C1547      H1551   1.085       .  S
C1548      N1552   1.434       .  S
N1550      H1553   1.045       .  S
N1550      H1554   1.044       .  S
N1552      H1555   1.045       .  S
N1552      H1556   1.046       .  S
C1561      C1562   1.406       .  A
C1561      C1566   1.404       .  A
C1562      C1563   1.390       .  A
C1562      N1567   1.437       .  S
C1563      C1564   1.397       .  A
C1563      H1568   1.083       .  S
C1564      C1565   1.397       .  A
C1564      C1569   1.442   1_556  S
C1565      C1566   1.387       .  A
C1565      N1570   1.431       .  S
C1566      H1571   1.083       .  S
N1567      H1587   1.044       .  S
N1567      H1588   1.046       .  S
C1569      C1572   1.386       .  A
C1569      C1576   1.409       .  A
N1570      H1585   1.045       .  S
N1570      H1586   1.045       .  S
C1572      C1573   1.379       .  A
C1572      H1577   1.080       .  S
C1573      C1574   1.412       .  A
C1573      N1578   1.433       .  S
C1574      C1575   1.396       .  A
C1575      C1576   1.397       .  A
C1575      H1579   1.084       .  S
C1576      N1580   1.433       .  S
N1578      H1581   1.045       .  S
N1578      H1582   1.045       .  S
N1580      H1583   1.045       .  S
N1580      H1584   1.044       .  S
C1589      C1590   1.400       .  A
C1589      C1594   1.409       .  A
C1590      C1591   1.388   1_455  A
C1590      N1595   1.434       .  S
C1591      C1592   1.410   1_655  A
C1591      H1596   1.081       .  S
C1592      C1593   1.399       .  A
C1592      C1597   1.472   1_455  S
C1593      C1594   1.400       .  A
C1593      N1598   1.431       .  S
C1594      H1599   1.082       .  S
N1595      H1615   1.046       .  S
N1595      H1616   1.045       .  S
C1597      C1600   1.398       .  A
C1597      C1604   1.410       .  A
N1598      H1613   1.045       .  S
N1598      H1614   1.046       .  S
C1600      C1601   1.400       .  A
C1600      H1605   1.078       .  S
C1601      C1602   1.410       .  A
C1601      N1606   1.432       .  S
C1602      C1603   1.401       .  A
C1603      C1604   1.400       .  A
C1603      H1607   1.084       .  S
C1604      N1608   1.432   1_655  S
N1606      H1609   1.044       .  S
N1606      H1610   1.045       .  S
N1608      H1611   1.046       .  S
N1608      H1612   1.046   1_455  S
C1617      C1618   1.402       .  A
C1617      C1622   1.404       .  A
C1618      C1619   1.390       .  A
C1618      N1623   1.433       .  S
C1619      C1620   1.405       .  A
C1619      H1624   1.085       .  S
C1620      C1621   1.402       .  A
C1620      C1625   1.469       .  S
C1621      C1622   1.401       .  A
C1621      N1626   1.428       .  S
C1622      H1627   1.084       .  S
N1623      H1643   1.046       .  S
N1623      H1644   1.045       .  S
C1625      C1628   1.405       .  A
C1625      C1632   1.404       .  A
N1626      H1641   1.042       .  S
N1626      H1642   1.045       .  S
C1628      C1629   1.400       .  A
C1628      H1633   1.085       .  S
C1629      C1630   1.405       .  A
C1629      N1634   1.433       .  S
C1630      C1631   1.405       .  A
C1631      C1632   1.402       .  A
C1631      H1635   1.084       .  S
C1632      N1636   1.432       .  S
N1634      H1637   1.040       .  S
N1634      H1638   1.046       .  S
N1636      H1639   1.046       .  S
N1636      H1640   1.045       .  S
C1645      C1646   1.414       .  A
C1645      C1650   1.398       .  A
C1646      C1647   1.397       .  A
C1646      N1651   1.431       .  S
C1647      C1648   1.398       .  A
C1647      H1652   1.084       .  S
C1648      C1649   1.413       .  A
C1648      C1653   1.468   1_556  S
C1649      C1650   1.395       .  A
C1649      N1654   1.433   1_556  S
C1650      H1655   1.084       .  S
N1651      H1671   1.046       .  S
N1651      H1672   1.046       .  S
C1653      C1656   1.400       .  A
C1653      C1660   1.406       .  A
N1654      H1669   1.046       .  S
N1654      H1670   1.045       .  S
C1656      C1657   1.392       .  A
C1656      H1661   1.076       .  S
C1657      C1658   1.404       .  A
C1657      N1662   1.433       .  S
C1658      C1659   1.398       .  A
C1659      C1660   1.391       .  A
C1659      H1663   1.085       .  S
C1660      N1664   1.428       .  S
N1662      H1665   1.046       .  S
N1662      H1666   1.046       .  S
N1664      H1667   1.046       .  S
N1664      H1668   1.046       .  S
C1673      C1674   1.412       .  A
C1673      C1678   1.394       .  A
C1674      C1675   1.404       .  A
C1674      N1679   1.437       .  S
C1675      C1676   1.400       .  A
C1675      H1680   1.084       .  S
C1676      C1677   1.413       .  A
C1676      C1681   1.465   1_556  S
C1677      C1678   1.392       .  A
C1677      N1682   1.434   1_556  S
C1678      H1683   1.085       .  S
N1679      H1699   1.045       .  S
N1679      H1700   1.046       .  S
C1681      C1684   1.398       .  A
C1681      C1688   1.402       .  A
N1682      H1697   1.046       .  S
N1682      H1698   1.043       .  S
C1684      C1685   1.389       .  A
C1684      H1689   1.085   1_554  S
C1685      C1686   1.411       .  A
C1685      N1690   1.433       .  S
C1686      C1687   1.406       .  A
C1687      C1688   1.403       .  A
C1687      H1691   1.083       .  S
C1688      N1692   1.430       .  S
N1690      H1693   1.046       .  S
N1690      H1694   1.046       .  S
N1692      H1695   1.045       .  S
N1692      H1696   1.042       .  S
C1701      C1702   1.410       .  A
C1701      C1706   1.395       .  A
C1702      C1703   1.405       .  A
C1702      N1707   1.434       .  S
C1703      C1704   1.400       .  A
C1703      H1708   1.083       .  S
C1704      C1705   1.411       .  A
C1704      C1709   1.464       .  S
C1705      C1706   1.386       .  A
C1705      N1710   1.434       .  S
C1706      H1711   1.084       .  S
N1707      H1727   1.045       .  S
N1707      H1728   1.043       .  S
C1709      C1712   1.399       .  A
C1709      C1716   1.408       .  A
N1710      H1725   1.046       .  S
N1710      H1726   1.045       .  S
C1712      C1713   1.386       .  A
C1712      H1717   1.080       .  S
C1713      C1714   1.411       .  A
C1713      N1718   1.436       .  S
C1714      C1715   1.403       .  A
C1715      C1716   1.400       .  A
C1715      H1719   1.083   1_565  S
C1716      N1720   1.431       .  S
N1718      H1721   1.045       .  S
N1718      H1722   1.046       .  S
N1720      H1723   1.045       .  S
N1720      H1724   1.046       .  S
C1729      C1730   1.408       .  A
C1729      C1734   1.406       .  A
C1730      C1731   1.396       .  A
C1730      N1735   1.433       .  S
C1731      C1732   1.405       .  A
C1731      H1736   1.084       .  S
C1732      C1733   1.407       .  A
C1732      C1737   1.481   1_655  S
C1733      C1734   1.403       .  A
C1733      N1738   1.432       .  S
C1734      H1739   1.084       .  S
N1735      H1755   1.046       .  S
N1735      H1756   1.046       .  S
C1737      C1740   1.405       .  A
C1737      C1744   1.413       .  A
N1738      H1753   1.045       .  S
N1738      H1754   1.046       .  S
C1740      C1741   1.405       .  A
C1740      H1745   1.084       .  S
C1741      C1742   1.413       .  A
C1741      N1746   1.432       .  S
C1742      C1743   1.402       .  A
C1743      C1744   1.392       .  A
C1743      H1747   1.083       .  S
C1744      N1748   1.433   1_455  S
N1746      H1749   1.046       .  S
N1746      H1750   1.046       .  S
N1748      H1751   1.046       .  S
N1748      H1752   1.046       .  S
C1757      C1758   1.406       .  A
C1757      C1762   1.412       .  A
C1758      C1759   1.389       .  A
C1758      N1763   1.431       .  S
C1759      C1760   1.400       .  A
C1759      H1764   1.085       .  S
C1760      C1761   1.386       .  A
C1760      C1765   1.444       .  S
C1761      C1762   1.386       .  A
C1761      N1766   1.423       .  S
C1762      H1767   1.083       .  S
N1763      H1783   1.045       .  S
N1763      H1784   1.045       .  S
C1765      C1768   1.390       .  A
C1765      C1772   1.398       .  A
N1766      H1781   1.045       .  S
N1766      H1782   1.045       .  S
C1768      C1769   1.385       .  A
C1768      H1773   1.081       .  S
C1769      C1770   1.409       .  A
C1769      N1774   1.435       .  S
C1770      C1771   1.403       .  A
C1771      C1772   1.396       .  A
C1771      H1775   1.084       .  S
C1772      N1776   1.430       .  S
N1774      H1777   1.044       .  S
N1774      H1778   1.045       .  S
N1776      H1779   1.045       .  S
N1776      H1780   1.043       .  S
C1785      C1786   1.413       .  A
C1785      C1790   1.398       .  A
C1786      C1787   1.401       .  A
C1786      N1791   1.436       .  S
C1787      C1788   1.397       .  A
C1787      H1792   1.083       .  S
C1788      C1789   1.409       .  A
C1788      C1793   1.456   1_655  S
C1789      C1790   1.385       .  A
C1789      N1794   1.435   1_655  S
C1790      H1795   1.084       .  S
N1791      H1811   1.046       .  S
N1791      H1812   1.046       .  S
C1793      C1796   1.398       .  A
C1793      C1800   1.407       .  A
N1794      H1809   1.045   1_455  S
N1794      H1810   1.046       .  S
C1796      C1797   1.395       .  A
C1796      H1801   1.081       .  S
C1797      C1798   1.407       .  A
C1797      N1802   1.433       .  S
C1798      C1799   1.400       .  A
C1799      C1800   1.389       .  A
C1799      H1803   1.084       .  S
C1800      N1804   1.434   1_455  S
N1802      H1805   1.046       .  S
N1802      H1806   1.045       .  S
N1804      H1807   1.045       .  S
N1804      H1808   1.046       .  S
C1813      C1814   1.411       .  A
C1813      C1818   1.398       .  A
C1814      C1815   1.401       .  A
C1814      N1819   1.432       .  S
C1815      C1816   1.399       .  A
C1815      H1820   1.084       .  S
C1816      C1817   1.415       .  A
C1816      C1821   1.471   1_556  S
C1817      C1818   1.394       .  A
C1817      N1822   1.433   1_556  S
C1818      H1823   1.084       .  S
N1819      H1839   1.046       .  S
N1819      H1840   1.046       .  S
C1821      C1824   1.408       .  A
C1821      C1828   1.401       .  A
N1822      H1837   1.046       .  S
N1822      H1838   1.045       .  S
C1824      C1825   1.400       .  A
C1824      H1829   1.084   1_554  S
C1825      C1826   1.400       .  A
C1825      N1830   1.432       .  S
C1826      C1827   1.405       .  A
C1827      C1828   1.397       .  A
C1827      H1831   1.084       .  S
C1828      N1832   1.430       .  S
N1830      H1833   1.046   1_554  S
N1830      H1834   1.046       .  S
N1832      H1835   1.046       .  S
N1832      H1836   1.045       .  S
C1841      C1842   1.412       .  A
C1841      C1846   1.410       .  A
C1842      C1843   1.404       .  A
C1842      N1847   1.432       .  S
C1843      C1844   1.400       .  A
C1843      H1848   1.074       .  S
C1844      C1845   1.403       .  A
C1844      C1849   1.475   1_655  S
C1845      C1846   1.398       .  A
C1845      N1850   1.432       .  S
C1846      H1851   1.083       .  S
N1847      H1867   1.045       .  S
N1847      H1868   1.046       .  S
C1849      C1852   1.412       .  A
C1849      C1856   1.404       .  A
N1850      H1865   1.046       .  S
N1850      H1866   1.045       .  S
C1852      C1853   1.384       .  A
C1852      H1857   1.080   1_455  S
C1853      C1854   1.399       .  A
C1853      N1858   1.434       .  S
C1854      C1855   1.405       .  A
C1855      C1856   1.400       .  A
C1855      H1859   1.084       .  S
C1856      N1860   1.431       .  S
N1858      H1861   1.042       .  S
N1858      H1862   1.046   1_455  S
N1860      H1863   1.045       .  S
N1860      H1864   1.046       .  S
C1869      C1870   1.409       .  A
C1869      C1874   1.402       .  A
C1870      C1871   1.386       .  A
C1870      N1875   1.431       .  S
C1871      C1872   1.390       .  A
C1871      H1876   1.073       .  S
C1872      C1873   1.404       .  A
C1872      C1877   1.450       .  S
C1873      C1874   1.391       .  A
C1873      N1878   1.433       .  S
C1874      H1879   1.084       .  S
N1875      H1895   1.040       .  S
N1875      H1896   1.045       .  S
C1877      C1880   1.402       .  A
C1877      C1884   1.391       .  A
N1878      H1893   1.046       .  S
N1878      H1894   1.046       .  S
C1880      C1881   1.402       .  A
C1880      H1885   1.084       .  S
C1881      C1882   1.406   1_565  A
C1881      N1886   1.436       .  S
C1882      C1883   1.406   1_545  A
C1883      C1884   1.382       .  A
C1883      H1887   1.085   1_565  S
C1884      N1888   1.428       .  S
N1886      H1889   1.046       .  S
N1886      H1890   1.046   1_565  S
N1888      H1891   1.045       .  S
N1888      H1892   1.044       .  S
