geometry optimzed in LAMMPS
_audit_creation_date              2020-11-30 
_audit_creation_method            'lammps2cif' 
_symmetry_space_group_name_H-M    'P1' 
_symmetry_Int_Tables_number       1 
_symmetry_cell_setting            triclinic 
loop_ 
_symmetry_equiv_pos_as_xyz 
  x,y,z 
_cell_length_a                    34.9755872 
_cell_length_b                    35.104088374042874 
_cell_length_c                    49.757909976790245 
_cell_angle_alpha                 90.26400331565338 
_cell_angle_beta                  90.02874820310412 
_cell_angle_gamma                 90.02261316980103 
loop_ 
_atom_site_label 
_atom_site_type_symbol 
_atom_site_fract_x 
_atom_site_fract_y 
_atom_site_fract_z 
_atom_site_charge 
C1          C  0.96283052  0.88977173  0.34622838     0.80800
N2          N  0.99628084  0.90827828  0.35198167    -0.77500
C3          C  0.02979658  0.88832758  0.35310659     0.83300
N4          N  0.02947849  0.85048108  0.34770588    -0.77400
C5          C  0.99663490  0.83221159  0.34161732     0.83400
N6          N  0.96351842  0.85185130  0.34089702    -0.79100
C7          C  0.03271651  0.73525751  0.32942481     0.80800
N8          N  0.03094867  0.77282282  0.33553972    -0.77500
C9          C  0.99739841  0.79170821  0.33514519     0.83300
N10         N  0.96498875  0.77301799  0.32840310    -0.77400
C11         C  0.96572783  0.73536977  0.32209486     0.83400
N12         N  0.99986261  0.71636123  0.32273128    -0.79100
C13         C  0.53406994  0.87771781  0.28769290     0.80800
N14         N  0.53234635  0.84046713  0.28065005    -0.77500
C15         C  0.49874350  0.82155006  0.28069525     0.83300
N16         N  0.46636976  0.83982364  0.28810791    -0.77400
C17         C  0.46715553  0.87719748  0.29516467     0.83400
N18         N  0.50123241  0.89625612  0.29483433    -0.79100
C19         C  0.46408786  0.72324636  0.27175668     0.80800
N20         N  0.49738847  0.70450022  0.26569416    -0.77500
C21         C  0.53085755  0.72457711  0.26335192     0.83300
N22         N  0.53047502  0.76272220  0.26773248    -0.77400
C23         C  0.49787553  0.78113106  0.27403158     0.83400
N24         N  0.46500493  0.76140579  0.27597161    -0.79100
O25         O  0.25190923  0.03540005  0.30903551    -0.57200
C26         C  0.27552973  0.02000086  0.39364242     0.75400
O27         O  0.20898227  0.93330441  0.35415823    -0.58400
C28         C  0.23174861  0.01440385  0.29373197     0.75400
C29         C  0.32384503  0.94746712  0.32755514     0.77800
Cd30       Cd  0.25426659  0.98518729  0.34416554     1.37500
O31         O  0.25886514  0.03988562  0.37593982    -0.57200
O32         O  0.31922631  0.98314975  0.32589583    -0.56000
C33         C  0.18021970  0.95510143  0.35703187     0.77700
O34         O  0.29574395  0.92863355  0.33675600    -0.58400
O35         O  0.28153819  0.98533820  0.38824218    -0.56800
O36         O  0.22379530  0.98128920  0.30176209    -0.56800
O37         O  0.18659750  0.99052233  0.35580563    -0.56000
O38         O  0.25143783  0.58011830  0.36807188    -0.57200
C39         C  0.22729249  0.58084302  0.28356344     0.75400
O40         O  0.21273192  0.68222416  0.32880498    -0.58400
C41         C  0.27394389  0.60052182  0.38196947     0.75400
C42         C  0.32099320  0.65595649  0.30522704     0.77800
Cd43       Cd  0.25293180  0.62407009  0.32870024     1.37500
O44         O  0.25489547  0.56776961  0.29724729    -0.57200
O45         O  0.31654417  0.62042331  0.30806145    -0.56000
C46         C  0.18234704  0.66476248  0.33550242     0.77700
O47         O  0.29354515  0.67695016  0.31306722    -0.58400
O48         O  0.21250059  0.61158951  0.29142141    -0.56800
O49         O  0.28604062  0.63076096  0.37130086    -0.56800
O50         O  0.18594001  0.62993498  0.34146713    -0.56000
O51         O  0.75332609  0.03746901  0.25860584    -0.57200
C52         C  0.72558028  0.03416529  0.34360029     0.75400
O53         O  0.71146446  0.93551425  0.29487544    -0.58400
C54         C  0.77393531  0.01478687  0.24495946     0.75400
C55         C  0.81957825  0.96184825  0.32062919     0.77800
Cd56       Cd  0.75124454  0.99329231  0.29775728     1.37500
O57         O  0.75148438  0.04925349  0.32930816    -0.57200
O58         O  0.81563872  0.99726249  0.31691340    -0.56000
C59         C  0.68130748  0.95325384  0.28804933     0.77700
O60         O  0.79126691  0.94093017  0.31435152    -0.58400
O61         O  0.71214642  0.00270907  0.33583818    -0.56800
O62         O  0.78286735  0.98353707  0.25567590    -0.56800
O63         O  0.68474434  0.98864419  0.28386810    -0.56000
O64         O  0.75053764  0.57407880  0.31343938    -0.57200
C65         C  0.77637954  0.58757170  0.22834797     0.75400
O66         O  0.71105386  0.67831214  0.26796216    -0.58400
C67         C  0.72981555  0.59486926  0.32845500     0.75400
C68         C  0.82344743  0.66035203  0.29315187     0.77800
Cd69       Cd  0.75343945  0.62358040  0.27748302     1.37500
O70         O  0.75464605  0.56969547  0.24433870    -0.57200
O71         O  0.81875954  0.62472142  0.29519944    -0.56000
C72         C  0.68191584  0.65800662  0.26256892     0.77700
O73         O  0.79519343  0.67928383  0.28428424    -0.58400
O74         O  0.78653291  0.62071642  0.23522353    -0.56800
O75         O  0.72151871  0.62766058  0.31999610    -0.56800
O76         O  0.68698759  0.62231806  0.26231468    -0.56000
C77         C  0.43519776  0.78170458  0.48983959     0.80800
N78         N  0.41729993  0.81580899  0.49354676    -0.77500
C79         C  0.43720141  0.84906343  0.49153494     0.83300
N80         N  0.47490650  0.84773638  0.98531120    -0.77400
C81         C  0.49291612  0.81404853  0.98147469     0.83400
N82         N  0.47300087  0.78121518  0.98367488    -0.79100
C83         C  0.58580200  0.84781831  0.45626129     0.80800
N84         N  0.60320733  0.81435374  0.44933765    -0.77500
C85         C  0.58494512  0.78048804  0.45358963     0.83300
N86         N  0.54955487  0.78050357  0.96485657    -0.77400
C87         C  0.53242849  0.81360270  0.97195464     0.83400
N88         N  0.55053031  0.84690999  0.96747256    -0.79100
O89         O  0.73220663  0.06897377  0.45236351    -0.57200
C90         C  0.71098872  0.05045290  0.36843274     0.75400
O91         O  0.62636442  0.02621593  0.42939584    -0.58400
C92         C  0.71303959  0.08774562  0.46949489     0.75400
C93         C  0.63967419  0.13811023  0.40397414     0.77800
Cd94       Cd  0.67942636  0.06995754  0.41886110     1.37500
O95         O  0.73121161  0.07012103  0.38453685    -0.57200
O96         O  0.67574046  0.13553498  0.40250632    -0.56000
C97         C  0.64746812  0.99702025  0.43203153     0.77700
O98         O  0.62198867  0.10874591  0.41212488    -0.58400
O99         O  0.67731744  0.04234096  0.37552922    -0.56800
O100        O  0.68007830  0.09863699  0.46267162    -0.56800
O101        O  0.68297688  0.00207995  0.42889405    -0.56000
O102        O  0.26259360  0.57032838  0.49430067    -0.57200
C103        C  0.28678229  0.58991910  0.40888698     0.75400
O104        O  0.37350852  0.60876627  0.47024863    -0.58400
C105        C  0.28322608  0.55191099  0.51075977     0.75400
C106        C  0.34941824  0.49736075  0.44957032     0.77800
Cd107      Cd  0.31640777  0.57092746  0.46080527     1.37500
O108        O  0.26666253  0.57024483  0.42486835    -0.57200
O109        O  0.31384516  0.50353152  0.44819069    -0.56000
C110        C  0.35547349  0.63911798  0.47598110     0.77700
O111        O  0.37030912  0.52596142  0.45510449    -0.58400
O112        O  0.31915620  0.60073936  0.41719968    -0.56800
O113        O  0.31744097  0.54553037  0.50426641    -0.56800
O114        O  0.31930079  0.63745485  0.47497797    -0.56000
O115        O  0.73009000  0.55580288  0.43798472    -0.57200
C116        C  0.71405393  0.58214019  0.35402184     0.75400
O117        O  0.61947278  0.52409792  0.39564850    -0.58400
C118        C  0.71058788  0.53344819  0.45249287     0.75400
C119        C  0.64791981  0.63425948  0.42134577     0.77800
Cd120      Cd  0.67852421  0.56171604  0.40362454     1.37500
O121        O  0.73191119  0.56071096  0.37018382    -0.57200
O122        O  0.68323884  0.62665600  0.42250277    -0.56000
C123        C  0.63679277  0.49457307  0.38716564     0.77700
O124        O  0.62637877  0.60771773  0.41273811    -0.58400
O125        O  0.68120932  0.59327531  0.36101125    -0.56800
O126        O  0.67756691  0.52475716  0.44429216    -0.56800
O127        O  0.67276664  0.49719156  0.38510675    -0.56000
C128        C  0.41552200  0.34888321  0.42873199     0.80800
N129        N  0.45002962  0.34907982  0.41621652    -0.77500
C130        C  0.46770565  0.31601843  0.40983423     0.83300
N131        N  0.45107608  0.28256606  0.41631777    -0.77400
C132        C  0.41669501  0.28142090  0.42880161     0.83400
N133        N  0.39860285  0.31489421  0.43486395    -0.79100
C134        C  0.56183609  0.28159327  0.38731257     0.80800
N135        N  0.52504391  0.28269653  0.39575570    -0.77500
C136        C  0.50594097  0.31593319  0.39798071     0.83300
N137        N  0.52375421  0.34886207  0.39162097    -0.77400
C138        C  0.56059915  0.34882786  0.38288936     0.83400
N139        N  0.57979787  0.31496172  0.38106055    -0.79100
O140        O  0.26747886  0.05874868  0.50243791    -0.57200
C141        C  0.28917053  0.03565185  0.41900363     0.75400
O142        O  0.37383354  0.10439303  0.45811437    -0.58400
C143        C  0.28558698  0.08015899  0.51864158     0.75400
C144        C  0.35988914  0.99399119  0.48505246     0.77800
Cd145      Cd  0.32025215  0.06122725  0.46887808     1.37500
O146        O  0.27086461  0.06020380  0.43261991    -0.57200
O147        O  0.32385398  0.99681364  0.48620276    -0.56000
C148        C  0.35267835  0.13329096  0.45421882     0.77700
O149        O  0.37811858  0.02356373  0.47779755    -0.58400
O150        O  0.32036900  0.02391121  0.42853637    -0.56800
O151        O  0.31824480  0.09163918  0.51158698    -0.56800
O152        O  0.31701591  0.12805161  0.45623484    -0.56000
O153        O  0.24326428  0.54810062  0.05019142    -0.57200
C154        C  0.22534256  0.50898652  0.13308391     0.75400
O155        O  0.20768621  0.43789782  0.06112048    -0.58400
C156        C  0.26892707  0.53419879  0.03503389     0.75400
C157        C  0.31717471  0.45049860  0.08621086     0.77800
Cd158      Cd  0.24620808  0.48981647  0.07950796     1.37500
O159        O  0.24685313  0.53110179  0.11984812    -0.57200
O160        O  0.31314549  0.48537606  0.09211754    -0.56000
C161        C  0.17866127  0.45837849  0.05598897     0.77700
O162        O  0.28713030  0.43261707  0.07918187    -0.58400
O163        O  0.21438535  0.47873803  0.12161823    -0.56800
O164        O  0.28298440  0.50254837  0.04146636    -0.56800
O165        O  0.18137225  0.49349307  0.06151675    -0.56000
C166        C  0.53753884  0.22496384  0.09820555     0.80800
N167        N  0.53634080  0.26323687  0.09494995    -0.77500
C168        C  0.50313390  0.28250607  0.09718099     0.83300
N169        N  0.47056445  0.26348190  0.10267941    -0.77400
C170        C  0.47068561  0.22521600  0.10608503     0.83400
N171        N  0.50435685  0.20571383  0.10343205    -0.79100
C172        C  0.46583239  0.37835589  0.08329681     0.80800
N173        N  0.46800457  0.34144264  0.09090104    -0.77500
C174        C  0.50180437  0.32296593  0.09103054     0.83300
N175        N  0.53383264  0.34135315  0.08329714    -0.77400
C176        C  0.53261950  0.37827511  0.07550830     0.83400
N177        N  0.49836076  0.39700714  0.07567378    -0.79100
C178        C  0.97014886  0.22837053  0.03603112     0.80800
N179        N  0.97140107  0.26599311  0.53027115    -0.77500
C180        C  0.00471100  0.28529998  0.53083310     0.83300
N181        N  0.03733006  0.26697131  0.53743875    -0.77400
C182        C  0.03710181  0.22926984  0.04336705     0.83400
N183        N  0.00318218  0.20985474  0.04264901    -0.79100
C184        C  0.03725421  0.38492910  0.02629936     0.80800
N185        N  0.00343737  0.40340852  0.02168636    -0.77500
C186        C  0.97029932  0.38300137  0.01900857     0.83300
N187        N  0.97154286  0.34456112  0.52142394    -0.77400
C188        C  0.00471366  0.32628604  0.52631596     0.83400
N189        N  0.03727186  0.34649819  0.52883687    -0.79100
O190        O  0.24571282  0.06888291  0.12715465    -0.57200
C191        C  0.27021039  0.09296117  0.04422976     0.75400
O192        O  0.20789804  0.17769766  0.08394420    -0.58400
C193        C  0.22653342  0.08800770  0.14411014     0.75400
C194        C  0.32167240  0.15437973  0.10835937     0.77800
Cd195      Cd  0.24850358  0.12242745  0.09497060     1.37500
O196        O  0.25200324  0.07141785  0.06018454    -0.57200
O197        O  0.31662267  0.11898087  0.10510842    -0.56000
C198        C  0.17864745  0.15791660  0.07787914     0.77700
O199        O  0.29193209  0.17517773  0.10745014    -0.58400
O200        O  0.27661730  0.12674118  0.05174223    -0.56800
O201        O  0.21856391  0.12207928  0.13827869    -0.56800
O202        O  0.18212162  0.12215556  0.07984430    -0.56000
O203        O  0.74961087  0.07577397  0.00925472    -0.57200
C204        C  0.77562661  0.07656989  0.09367214     0.75400
O205        O  0.79166972  0.17560739  0.04753257    -0.58400
C206        C  0.72743518  0.09734405  0.99609912     0.75400
C207        C  0.68088516  0.15267547  0.06976758     0.77800
Cd208      Cd  0.75007202  0.11918973  0.04882531     1.37500
O209        O  0.75238856  0.06055505  0.07760176    -0.57200
O210        O  0.68440245  0.11710987  0.06621610    -0.56000
C211        C  0.82061167  0.15790000  0.03843506     0.77700
O212        O  0.71003902  0.17286045  0.06441183    -0.58400
O213        O  0.78559089  0.11023030  0.08854591    -0.56800
O214        O  0.71666387  0.12778512  0.00733117    -0.56800
O215        O  0.81573006  0.12318019  0.03239809    -0.56000
O216        O  0.74927972  0.53497569  0.06277369    -0.57200
C217        C  0.72471561  0.51747923  0.97759480     0.75400
O218        O  0.78937512  0.42954684  0.02023820    -0.58400
C219        C  0.76838816  0.51365357  0.07837606     0.75400
C220        C  0.67486008  0.44932660  0.04274298     0.77800
Cd221      Cd  0.74598461  0.48396092  0.02749501     1.37500
O222        O  0.74508711  0.53629073  0.99406692    -0.57200
O223        O  0.68021220  0.48494756  0.04421293    -0.56000
C224        C  0.81881568  0.44973306  0.01560970     0.77700
O225        O  0.70289161  0.42944568  0.03444588    -0.58400
O226        O  0.71547250  0.48399361  0.98412270    -0.56800
O227        O  0.77499838  0.48007362  0.07056246    -0.56800
O228        O  0.81360454  0.48536812  0.01444197    -0.56000
C229        C  0.08644451  0.75933406  0.16925615     0.80800
N230        N  0.05235797  0.76054716  0.15642698    -0.77500
C231        C  0.03513092  0.79400387  0.15117390     0.83300
N232        N  0.05200258  0.82687656  0.15899938    -0.77400
C233        C  0.08626825  0.82672880  0.17182512     0.83400
N234        N  0.10371530  0.79262821  0.17692148    -0.79100
C235        C  0.93926812  0.82787037  0.13262170     0.80800
N236        N  0.92038240  0.79415882  0.12921701    -0.77500
C237        C  0.93947263  0.76038506  0.13111008     0.83300
N238        N  0.97735022  0.76082256  0.13702720    -0.77400
C239        C  0.99618150  0.79415175  0.14070336     0.83400
N240        N  0.97705707  0.82741234  0.13858199    -0.79100
O241        O  0.22983703  0.54028841  0.17571393    -0.57200
C242        C  0.21218459  0.56296532  0.25937876     0.75400
O243        O  0.12551195  0.58174446  0.19831924    -0.58400
C244        C  0.21180124  0.51823511  0.15996915     0.75400
C245        C  0.14257757  0.47079106  0.22798242     0.77800
Cd246      Cd  0.17918306  0.53884177  0.21029554     1.37500
O247        O  0.23189826  0.54187211  0.24391120    -0.57200
O248        O  0.17860397  0.47405613  0.22688661    -0.56000
C249        C  0.14716951  0.61016878  0.19387751     0.77700
O250        O  0.12300983  0.49978626  0.22133268    -0.58400
O251        O  0.17837266  0.57055359  0.25231421    -0.56800
O252        O  0.18051639  0.50467042  0.16821723    -0.56800
O253        O  0.18266867  0.60455641  0.19629736    -0.56000
O254        O  0.76859712  0.54995188  0.11951624    -0.57200
C255        C  0.79059099  0.57147162  0.20315279     0.75400
O256        O  0.87700111  0.50178460  0.15899125    -0.58400
C257        C  0.78474089  0.52645766  0.10379909     0.75400
C258        C  0.86280585  0.61445260  0.13830553     0.77800
Cd259      Cd  0.82229338  0.54623336  0.15305041     1.37500
O260        O  0.77161453  0.54839197  0.18869133    -0.57200
O261        O  0.82673926  0.61190238  0.13730806    -0.56000
C262        C  0.85685978  0.47481439  0.16835735     0.77700
O263        O  0.88072898  0.58436297  0.14472855    -0.58400
O264        O  0.82294839  0.58151739  0.19454001    -0.56800
O265        O  0.81655430  0.51317542  0.11110483    -0.56800
O266        O  0.82154688  0.48161560  0.17117638    -0.56000
O267        O  0.77093481  0.04404943  0.20153189    -0.57200
C268        C  0.79123022  0.05882826  0.11756966     0.75400
O269        O  0.87685041  0.08277863  0.17872104    -0.58400
C270        C  0.78882226  0.02384837  0.21841320     0.75400
C271        C  0.86177940  0.97015003  0.15328603     0.77800
Cd272      Cd  0.82343530  0.03942249  0.16773732     1.37500
O273        O  0.77159657  0.03838485  0.13338603    -0.57200
O274        O  0.82569596  0.97289935  0.15393926    -0.56000
C275        C  0.85590433  0.11225276  0.18068199     0.77700
O276        O  0.88061783  0.99994516  0.15936378    -0.58400
O277        O  0.82502214  0.06689962  0.12444804    -0.56800
O278        O  0.82094011  0.01085572  0.21136906    -0.56800
O279        O  0.82046329  0.10741965  0.17706149    -0.56000
C280        C  0.06746030  0.32663233  0.24067951     0.80800
N281        N  0.08516823  0.29223778  0.24354761    -0.77500
C282        C  0.06499543  0.25924464  0.24034190     0.83300
N283        N  0.02745350  0.26126912  0.23383011    -0.77400
C284        C  0.00982563  0.29520767  0.23063182     0.83400
N285        N  0.02985977  0.32773352  0.23399891    -0.79100
C286        C  0.91777201  0.26186856  0.20399680     0.80800
N287        N  0.90096766  0.29522481  0.19644551    -0.77500
C288        C  0.91925908  0.32909602  0.20084393     0.83300
N289        N  0.95429387  0.32921756  0.21270031    -0.77400
C290        C  0.97073957  0.29612898  0.22045431     0.83400
N291        N  0.95249187  0.26289075  0.21593989    -0.79100
O292        O  0.23240294  0.05025869  0.18386706    -0.57200
C293        C  0.21625316  0.02701581  0.26818911     0.75400
O294        O  0.12321994  0.08364452  0.22626659    -0.58400
C295        C  0.21252034  0.07196555  0.16911817     0.75400
C296        C  0.15023269  0.97301182  0.20325628     0.77800
Cd297      Cd  0.18142885  0.04580413  0.21854275     1.37500
O298        O  0.23341994  0.04992544  0.25267880    -0.57200
O299        O  0.18589215  0.97902119  0.20421444    -0.56000
C300        C  0.14098519  0.11308719  0.23448047     0.77700
O301        O  0.12877609  0.00120654  0.20875395    -0.58400
O302        O  0.18441524  0.01400057  0.26050690    -0.56800
O303        O  0.17943220  0.08045223  0.17719141    -0.56800
O304        O  0.17685455  0.11003564  0.23693475    -0.56000
C305        C  0.08179458  0.15238680  0.23494134    -0.20700
C306        C  0.12121717  0.14974038  0.23948264    -0.08700
C307        C  0.14167744  0.18306742  0.24628021     0.30100
C308        C  0.12308638  0.21836189  0.24738053    -0.20700
C309        C  0.08384973  0.22127908  0.24167147    -0.08800
C310        C  0.06323600  0.18752140  0.23591339     0.30100
F311        F  0.02528859  0.18816407  0.23022627    -0.19300
H312        H  0.06533024  0.12729649  0.22966894     0.18500
H313        H  0.13974596  0.24356212  0.25200620     0.18500
F314        F  0.17990886  0.18195548  0.25091548    -0.19300
C315        C  0.84786502  0.18291729  0.18513093    -0.20700
C316        C  0.87155711  0.15051902  0.18670100    -0.08700
C317        C  0.91000860  0.15524813  0.19398391     0.30100
C318        C  0.92434933  0.19148495  0.19942307    -0.20700
C319        C  0.90086285  0.22404070  0.19785386    -0.08800
C320        C  0.86229517  0.21938341  0.19061619     0.30100
F321        F  0.83838257  0.24975168  0.18925699    -0.19300
H322        H  0.81804509  0.18006399  0.17960331     0.18500
H323        H  0.95425061  0.19387544  0.20479647     0.18500
F324        F  0.93384472  0.12490614  0.19615376    -0.19300
C325        C  0.84856440  0.40721533  0.18306546    -0.20700
C326        C  0.87314372  0.43719233  0.17569265    -0.08700
C327        C  0.91282765  0.43063053  0.17565826     0.30100
C328        C  0.92736659  0.39539410  0.18378622    -0.20700
C329        C  0.90279970  0.36563874  0.19151933    -0.08800
C330        C  0.86311676  0.37172172  0.19070643     0.30100
F331        F  0.83839655  0.34389858  0.19816153    -0.19300
H332        H  0.81786565  0.41127022  0.18306351     0.18500
H333        H  0.95807019  0.39131442  0.18387231     0.18500
F334        F  0.93770443  0.45824577  0.16806937    -0.19300
C335        C  0.06820144  0.39711768  0.24589525    -0.20700
C336        C  0.08872725  0.36301915  0.24214850    -0.08700
C337        C  0.12821964  0.36496136  0.23702820     0.30100
C338        C  0.14591029  0.40037095  0.23376935    -0.20700
C339        C  0.12463153  0.43429580  0.23549903    -0.08800
C340        C  0.08586623  0.43240936  0.24264013     0.30100
F341        F  0.06477847  0.46454855  0.24593031    -0.19300
H342        H  0.03793605  0.39652636  0.25049576     0.18500
H343        H  0.17596427  0.40111688  0.22854888     0.18500
F344        F  0.14928731  0.33288543  0.23340226    -0.19300
C345        C  0.87910577  0.86506830  0.13956637    -0.20700
C346        C  0.91845386  0.86460642  0.13406412    -0.08700
C347        C  0.93839990  0.89956070  0.13315374     0.30100
C348        C  0.91972969  0.93370075  0.13922314    -0.20700
C349        C  0.88076908  0.93393617  0.14585405    -0.08800
C350        C  0.86038976  0.89928511  0.14545972     0.30100
F351        F  0.82271506  0.89808957  0.15191355    -0.19300
H352        H  0.86303460  0.83873594  0.14053064     0.18500
H353        H  0.93591168  0.96001101  0.13889967     0.18500
F354        F  0.97612877  0.90087575  0.12678823    -0.19300
C355        C  0.94042377  0.68900552  0.12948114    -0.20700
C356        C  0.91913903  0.72311624  0.12980785    -0.08700
C357        C  0.87897210  0.72069206  0.13092783     0.30100
C358        C  0.86096523  0.68515575  0.13260814    -0.20700
C359        C  0.88240506  0.65126484  0.13341184    -0.08800
C360        C  0.92240325  0.65353591  0.13135287     0.30100
F361        F  0.94426137  0.62159617  0.13165016    -0.19300
H362        H  0.97134382  0.68967240  0.12842292     0.18500
H363        H  0.83010148  0.68431135  0.13427503     0.18500
F364        F  0.85697962  0.75252033  0.13164025    -0.19300
C365        C  0.14170211  0.86679444  0.18790969    -0.20700
C366        C  0.10286626  0.86370301  0.18094514    -0.08700
C367        C  0.07984640  0.89677325  0.18232092     0.30100
C368        C  0.09552309  0.93179320  0.18978570    -0.20700
C369        C  0.13441567  0.93512718  0.19601853    -0.08800
C370        C  0.15745247  0.90213184  0.19527444     0.30100
F371        F  0.19510169  0.90385722  0.20181263    -0.19300
H372        H  0.16006781  0.84197720  0.18725720     0.18500
H373        H  0.07705828  0.95655101  0.19041465     0.18500
F374        F  0.04188206  0.89558460  0.17669640    -0.19300
C375        C  0.14199599  0.71603748  0.17818921    -0.20700
C376        C  0.10245447  0.72150897  0.17594821    -0.08700
C377        C  0.07786534  0.68991036  0.17921774     0.30100
C378        C  0.09264206  0.65388915  0.18469028    -0.20700
C379        C  0.13213881  0.64829001  0.18688806    -0.08800
C380        C  0.15683802  0.67974871  0.18335458     0.30100
F381        F  0.19535770  0.67560931  0.18488387    -0.19300
H382        H  0.16145935  0.73971471  0.17546316     0.18500
H383        H  0.07299619  0.63035946  0.18741340     0.18500
F384        F  0.03929105  0.69377711  0.17771503    -0.19300
C385        C  0.89941873  0.37786383  0.01413987    -0.20700
C386        C  0.93219533  0.40126993  0.01523535    -0.08700
C387        C  0.92720854  0.44101959  0.01392676     0.30100
C388        C  0.89024880  0.45659274  0.01288534    -0.20700
C389        C  0.85762707  0.43296891  0.01312042    -0.08800
C390        C  0.86275887  0.39333313  0.01320912     0.30100
F391        F  0.83237479  0.36926867  0.51313071    -0.19300
H392        H  0.90182524  0.34712597  0.51472968     0.18500
H393        H  0.88716622  0.48729009  0.01275737     0.18500
F394        F  0.95772384  0.46490940  0.01428454    -0.19300
C395        C  0.07456144  0.17142186  0.05744896    -0.20700
C396        C  0.07349407  0.21057266  0.05168381    -0.08700
C397        C  0.10762215  0.23191367  0.05450305     0.30100
C398        C  0.14136512  0.21453386  0.06303072    -0.20700
C399        C  0.14235497  0.17556604  0.06886643    -0.08800
C400        C  0.10854780  0.15401504  0.06589901     0.30100
F401        F  0.10805986  0.11620594  0.07147910    -0.19300
H402        H  0.04902836  0.15416998  0.55554686     0.18500
H403        H  0.16691207  0.23177880  0.06501122     0.18500
F404        F  0.10877507  0.26981376  0.04930712    -0.19300
C405        C  0.89925194  0.23187276  0.03956680    -0.20700
C406        C  0.93229005  0.20938662  0.03624048    -0.08700
C407        C  0.92808635  0.16993963  0.03238734     0.30100
C408        C  0.89154728  0.15351837  0.03230937    -0.20700
C409        C  0.85865101  0.17606816  0.03614800    -0.08800
C410        C  0.86291806  0.21555701  0.03950085     0.30100
F411        F  0.83204561  0.23855625  0.04272730    -0.19300
H412        H  0.90142811  0.26239714  0.04248350     0.18500
H413        H  0.88905770  0.12297694  0.02965792     0.18500
F414        F  0.95904438  0.14738502  0.52818963    -0.19300
C415        C  0.57106520  0.43663790  0.06421624    -0.20700
C416        C  0.56852824  0.39683397  0.06635406    -0.08700
C417        C  0.60110583  0.37470942  0.06000453     0.30100
C418        C  0.63511190  0.39208353  0.05209616    -0.20700
C419        C  0.63792250  0.43179859  0.05047548    -0.08800
C420        C  0.60540765  0.45405733  0.05649439     0.30100
F421        F  0.60665184  0.49262866  0.05495479    -0.19300
H422        H  0.54662880  0.45439340  0.06891560     0.18500
H423        H  0.65952455  0.37423437  0.04748979     0.18500
F424        F  0.60041764  0.33608431  0.06120877    -0.19300
C425        C  0.42956731  0.16652323  0.10489793    -0.20700
C426        C  0.43352141  0.20557852  0.11039752    -0.08700
C427        C  0.40064930  0.22652732  0.11791794     0.30100
C428        C  0.36473456  0.20920798  0.11836681    -0.20700
C429        C  0.36050760  0.17069744  0.11154490    -0.08800
C430        C  0.39349121  0.14915982  0.10542818     0.30100
F431        F  0.39080949  0.11180966  0.09850478    -0.19300
H432        H  0.45414999  0.14969096  0.09902112     0.18500
H433        H  0.33997137  0.22635606  0.12336515     0.18500
F434        F  0.40277327  0.26412517  0.12427503    -0.19300
C435        C  0.57562571  0.16623244  0.08709934    -0.20700
C436        C  0.57457067  0.20510127  0.09382160    -0.08700
C437        C  0.60927500  0.22576335  0.09419270     0.30100
C438        C  0.64356121  0.20833283  0.08675349    -0.20700
C439        C  0.64446728  0.16984650  0.07917298    -0.08800
C440        C  0.61016036  0.14868646  0.07986240     0.30100
F441        F  0.60960350  0.11137326  0.07263360    -0.19300
H442        H  0.54952013  0.14964428  0.08654693     0.18500
H443        H  0.66950059  0.22520614  0.08674072     0.18500
F444        F  0.61031520  0.26304669  0.10156760    -0.19300
C445        C  0.14277441  0.40323506  0.03756599    -0.20700
C446        C  0.14311535  0.44172678  0.04495502    -0.08700
C447        C  0.10892184  0.46288077  0.04312892     0.30100
C448        C  0.07458647  0.44478883  0.53603707    -0.20700
C449        C  0.07391952  0.40557711  0.03027431    -0.08800
C450        C  0.10885848  0.38534431  0.03015178     0.30100
F451        F  0.11052055  0.34788278  0.02336922    -0.19300
H452        H  0.16877848  0.38650015  0.03812086     0.18500
H453        H  0.04837924  0.46120326  0.53596157     0.18500
F454        F  0.10830085  0.50065266  0.54907318    -0.19300
C455        C  0.35837088  0.39279488  0.08233520    -0.20700
C456        C  0.35529918  0.43220400  0.08635847    -0.08700
C457        C  0.38903854  0.45404963  0.08877397     0.30100
C458        C  0.42493514  0.43663078  0.08699153    -0.20700
C459        C  0.42794133  0.39714244  0.08332178    -0.08800
C460        C  0.39414563  0.37531749  0.08098490     0.30100
F461        F  0.39545931  0.33704412  0.07698125    -0.19300
H462        H  0.33298249  0.37536684  0.08014962     0.18500
H463        H  0.45039923  0.45397694  0.08903959     0.18500
F464        F  0.38752080  0.49232562  0.09257326    -0.19300
C465        C  0.36163218  0.24019061  0.44332013    -0.20700
C466        C  0.40022476  0.24366250  0.43595421    -0.08700
C467        C  0.42298841  0.21033680  0.43506138     0.30100
C468        C  0.40727130  0.17480841  0.44099383    -0.20700
C469        C  0.36864463  0.17130561  0.44790709    -0.08800
C470        C  0.34588559  0.20444846  0.44915335     0.30100
F471        F  0.30849356  0.20250537  0.45630645    -0.19300
H472        H  0.34343958  0.26511310  0.44430681     0.18500
H473        H  0.42548788  0.14988379  0.44006038     0.18500
F474        F  0.46071942  0.21174493  0.42875911    -0.19300
C475        C  0.63789290  0.42473999  0.37639418    -0.20700
C476        C  0.61670063  0.45817212  0.38129914    -0.08700
C477        C  0.57667564  0.45554545  0.38268680     0.30100
C478        C  0.55872858  0.42003111  0.38137287    -0.20700
C479        C  0.58008638  0.38614907  0.37880360    -0.08800
C480        C  0.61989264  0.38908416  0.37500968     0.30100
F481        F  0.64177623  0.35762195  0.37114671    -0.19300
H482        H  0.66874549  0.42592991  0.37474553     0.18500
H483        H  0.52793706  0.41914156  0.38355422     0.18500
F484        F  0.55480202  0.48706526  0.38636042    -0.19300
C485        C  0.40507008  0.45288103  0.44790323    -0.20700
C486        C  0.36559262  0.45873401  0.44518135    -0.08700
C487        C  0.34207415  0.42729812  0.43864232     0.30100
C488        C  0.35812644  0.39118796  0.43420924    -0.20700
C489        C  0.39778847  0.38583437  0.43602319    -0.08800
C490        C  0.42103970  0.41696513  0.44339651     0.30100
F491        F  0.45935403  0.41263958  0.44653086    -0.19300
H492        H  0.42378743  0.47623243  0.45341806     0.18500
H493        H  0.33968147  0.36767959  0.42856547     0.18500
F494        F  0.30365213  0.43143060  0.43613899    -0.19300
C495        C  0.56138942  0.21144264  0.39527051    -0.20700
C496        C  0.58214456  0.24431284  0.38808893    -0.08700
C497        C  0.62183720  0.24093552  0.38401686     0.30100
C498        C  0.64022232  0.20603439  0.38851227    -0.20700
C499        C  0.61951275  0.17387426  0.39705218    -0.08800
C500        C  0.57967442  0.17681309  0.39982794     0.30100
F501        F  0.55827062  0.14659914  0.40773567    -0.19300
H502        H  0.53074421  0.21255236  0.39823053     0.18500
H503        H  0.67092362  0.20445696  0.38590512     0.18500
F504        F  0.64315826  0.27136277  0.37650297    -0.19300
C505        C  0.64142475  0.73793349  0.94459766    -0.20700
C506        C  0.60171279  0.74374812  0.44458107    -0.08700
C507        C  0.57769087  0.71366380  0.43625909     0.30100
C508        C  0.59302151  0.67846256  0.42878576    -0.20700
C509        C  0.63260684  0.67215671  0.42937493    -0.08800
C510        C  0.65684195  0.70247789  0.43718229     0.30100
F511        F  0.69538350  0.69804460  0.93763965    -0.19300
H512        H  0.66051385  0.76063295  0.95080851     0.18500
H513        H  0.57368667  0.65602031  0.42249539     0.18500
F514        F  0.53923052  0.71840439  0.43472763    -0.19300
C515        C  0.65619770  0.92688756  0.43903129    -0.20700
C516        C  0.63185014  0.95885418  0.43828122    -0.08700
C517        C  0.59274375  0.95378474  0.44347482     0.30100
C518        C  0.57846437  0.91765432  0.44918372    -0.20700
C519        C  0.60263786  0.88555564  0.44993899    -0.08800
C520        C  0.64183201  0.89054987  0.44480319     0.30100
F521        F  0.66639348  0.86067878  0.44590828    -0.19300
H522        H  0.68651279  0.92999043  0.43518550     0.18500
H523        H  0.54807428  0.91493660  0.95289274     0.18500
F524        F  0.56813410  0.98368158  0.94322145    -0.19300
C525        C  0.37754831  0.88839979  0.49509372    -0.20700
C526        C  0.41761674  0.88656012  0.49345128    -0.08700
C527        C  0.43844861  0.92098053  0.49185737     0.30100
C528        C  0.41944338  0.95585181  0.49033007    -0.20700
C529        C  0.37942130  0.95746314  0.49053990    -0.08800
C530        C  0.35856176  0.92339339  0.49371225     0.30100
F531        F  0.31975354  0.92352307  0.49427122    -0.19300
H532        H  0.36065864  0.86262938  0.49652047     0.18500
H533        H  0.43619612  0.98162017  0.48819398     0.18500
F534        F  0.47723601  0.92124006  0.49101125    -0.19300
C535        C  0.43418231  0.71072584  0.48920313    -0.20700
C536        C  0.41374984  0.74524954  0.48987443    -0.08700
C537        C  0.37354859  0.74406193  0.48835142     0.30100
C538        C  0.35472387  0.70922692  0.48483672    -0.20700
C539        C  0.37546523  0.67503710  0.48268119    -0.08800
C540        C  0.41541601  0.67604963  0.48556709     0.30100
F541        F  0.43662319  0.64372204  0.48418343    -0.19300
H542        H  0.46507422  0.71049085  0.49072248     0.18500
H543        H  0.32388424  0.70922285  0.48284310     0.18500
F544        F  0.35239852  0.77646216  0.48895074    -0.19300
C545        C  0.39354251  0.72591605  0.27810081    -0.20700
C546        C  0.42696070  0.70355677  0.27632513    -0.08700
C547        C  0.42424853  0.66439024  0.28186325     0.30100
C548        C  0.38936395  0.64880177  0.29048103    -0.20700
C549        C  0.35672142  0.67191752  0.29381793    -0.08800
C550        C  0.35906592  0.71056002  0.28693910     0.30100
F551        F  0.32829936  0.73391787  0.28925098    -0.19300
H552        H  0.39420052  0.75604210  0.27351210     0.18500
H553        H  0.38826381  0.61881377  0.29544239     0.18500
F554        F  0.45543916  0.64152853  0.28024673    -0.19300
C555        C  0.60148389  0.72956078  0.25666368    -0.20700
C556        C  0.56874659  0.70617104  0.25871154    -0.08700
C557        C  0.57383903  0.66641941  0.25858457     0.30100
C558        C  0.61082706  0.65092058  0.25832291    -0.20700
C559        C  0.64338900  0.67461278  0.25832979    -0.08800
C560        C  0.63823441  0.71416954  0.25674105     0.30100
F561        F  0.66861221  0.73825601  0.25628516    -0.19300
H562        H  0.59896464  0.76029167  0.25611545     0.18500
H563        H  0.61394659  0.62026949  0.25936566     0.18500
F564        F  0.54343167  0.64249898  0.25989956    -0.19300
C565        C  0.39967408  0.87311679  0.31158105    -0.20700
C566        C  0.43091214  0.89585194  0.30369727    -0.08700
C567        C  0.42649595  0.93567574  0.30381372     0.30100
C568        C  0.39152739  0.95205702  0.31130673    -0.20700
C569        C  0.36040421  0.92927773  0.31929126    -0.08800
C570        C  0.36499845  0.88948707  0.31949842     0.30100
F571        F  0.33613363  0.86623610  0.32739977    -0.19300
H572        H  0.40210667  0.84236291  0.31194333     0.18500
H573        H  0.38892660  0.98279475  0.31100424     0.18500
F574        F  0.45562838  0.95886038  0.29633418    -0.19300
C575        C  0.57395671  0.93692071  0.28537116    -0.20700
C576        C  0.57174081  0.89716548  0.28756536    -0.08700
C577        C  0.60604958  0.87598677  0.28896339     0.30100
C578        C  0.64143470  0.89437148  0.28842337    -0.20700
C579        C  0.64365488  0.93410001  0.28631368    -0.08800
C580        C  0.60946416  0.95527849  0.28455378     0.30100
F581        F  0.61014573  0.99382495  0.28263883    -0.19300
H582        H  0.54815611  0.95386528  0.28406688     0.18500
H583        H  0.66719749  0.87740701  0.28999723     0.18500
F584        F  0.60568260  0.83749574  0.29155384    -0.19300
C585        C  0.10396303  0.73898947  0.33090540    -0.20700
C586        C  0.07066627  0.71629660  0.33038905    -0.08700
C587        C  0.07461191  0.67651829  0.33185809     0.30100
C588        C  0.11098417  0.66018235  0.33438615    -0.20700
C589        C  0.14415028  0.68300045  0.33492633    -0.08800
C590        C  0.14022086  0.72266226  0.33293197     0.30100
F591        F  0.17132244  0.74580563  0.33297167    -0.19300
H592        H  0.10211882  0.76972289  0.32957934     0.18500
H593        H  0.11322113  0.62944845  0.33539369     0.18500
F594        F  0.04352302  0.65338761  0.33115178    -0.19300
C595        C  0.92801724  0.67609043  0.31146760    -0.20700
C596        C  0.92937191  0.71588997  0.31459022    -0.08700
C597        C  0.89536282  0.73694083  0.31059036     0.30100
C598        C  0.86135914  0.71857306  0.30365141    -0.20700
C599        C  0.85999636  0.67891500  0.30066847    -0.08800
C600        C  0.89373842  0.65769834  0.30467566     0.30100
F601        F  0.89388237  0.61925265  0.30164111    -0.19300
H602        H  0.95348143  0.65906189  0.31437240     0.18500
H603        H  0.83587350  0.73558334  0.30072267     0.18500
F604        F  0.89458399  0.77545297  0.31311336    -0.19300
C605        C  0.07203128  0.94620998  0.35388546    -0.20700
C606        C  0.06715624  0.90705981  0.35834600    -0.08700
C607        C  0.09939851  0.88507039  0.36552970     0.31700
C608        C  0.13574915  0.90138404  0.36626469    -0.20700
C609        C  0.14097411  0.93993432  0.36020217    -0.08800
C610        C  0.10855726  0.96261238  0.35480098     0.30100
F611        F  0.11224888  0.00010653  0.34877970    -0.19300
H612        H  0.04786501  0.96381955  0.34838873     0.18500
H613        H  0.16006516  0.88344401  0.37085792     0.18500
F614        F  0.09618772  0.84740883  0.37121449    -0.19300
C615        C  0.85667083  0.90723067  0.33866703    -0.20700
C616        C  0.85572143  0.94551442  0.33090611    -0.08700
C617        C  0.88993179  0.96683943  0.33151452     0.30100
C618        C  0.92469470  0.94917523  0.33789367    -0.20700
C619        C  0.92586178  0.91016764  0.34393752    -0.08800
C620        C  0.89114281  0.88974740  0.34531171     0.30100
F621        F  0.89038910  0.85249508  0.35252218    -0.19300
H622        H  0.83070740  0.89040080  0.33899440     0.18500
H623        H  0.95085557  0.96562360  0.33687455     0.18500
F624        F  0.89021845  0.00421317  0.32464968    -0.19300
C625        C  0.96283043  0.88977019  0.84622813     0.80800
N626        N  0.99628075  0.90827666  0.85198169    -0.77500
C627        C  0.02979638  0.88832576  0.85310730     0.83300
N628        N  0.02947812  0.85047915  0.84770696    -0.77400
C629        C  0.99663458  0.83220973  0.84161815     0.83400
N630        N  0.96351823  0.85184963  0.84089720    -0.79100
C631        C  0.03271645  0.73525552  0.82942652     0.80800
N632        N  0.03094846  0.77282093  0.83554111    -0.77500
C633        C  0.99739813  0.79170619  0.83514642     0.83300
N634        N  0.96498856  0.77301572  0.82840447    -0.77400
C635        C  0.96572780  0.73536739  0.82209652     0.83400
N636        N  0.99986266  0.71635898  0.82273312    -0.79100
C637        C  0.53407054  0.87771624  0.78769314     0.80800
N638        N  0.53234688  0.84046554  0.78065045    -0.77500
C639        C  0.49874415  0.82154833  0.78069626     0.83300
N640        N  0.46637055  0.83982173  0.78810943    -0.77400
C641        C  0.46715637  0.87719559  0.79516612     0.83400
N642        N  0.50123315  0.89625443  0.79483511    -0.79100
C643        C  0.46408852  0.72324488  0.77175705     0.80800
N644        N  0.49738923  0.70449869  0.76569471    -0.77500
C645        C  0.53085837  0.72457559  0.76335280     0.83300
N646        N  0.53047575  0.76272064  0.76773350    -0.77400
C647        C  0.49787621  0.78112945  0.77403243     0.83400
N648        N  0.46500559  0.76140425  0.77597212    -0.79100
O649        O  0.25191174  0.03539860  0.80903628    -0.57200
C650        C  0.27552922  0.02000113  0.89364313     0.75400
O651        O  0.20898248  0.93330254  0.85415892    -0.58400
C652        C  0.23174971  0.01440348  0.79373297     0.75400
C653        C  0.32384566  0.94746513  0.82755668     0.77800
Cd654      Cd  0.25426693  0.98518592  0.84416660     1.37500
O655        O  0.25886506  0.03988532  0.87594002    -0.57200
O656        O  0.31922679  0.98314768  0.82589687    -0.56000
C657        C  0.18021992  0.95509942  0.85703307     0.77700
O658        O  0.29574460  0.92863179  0.83675779    -0.58400
O659        O  0.28153779  0.98533831  0.88824349    -0.56800
O660        O  0.22379426  0.98128952  0.80176343    -0.56800
O661        O  0.18659774  0.99052036  0.85580725    -0.56000
O662        O  0.25143698  0.58011871  0.86807294    -0.57200
C663        C  0.22729443  0.58084259  0.78356369     0.75400
O664        O  0.21273220  0.68222351  0.82880603    -0.58400
C665        C  0.27394405  0.60052159  0.88197017     0.75400
C666        C  0.32099373  0.65595627  0.80522798     0.77800
Cd667      Cd  0.25293239  0.62406969  0.82870088     1.37500
O668        O  0.25489684  0.56776905  0.79724803    -0.57200
O669        O  0.31654473  0.62042311  0.80806252    -0.56000
C670        C  0.18234750  0.66476159  0.83550357     0.77700
O671        O  0.29354567  0.67695003  0.81306806    -0.58400
O672        O  0.21250248  0.61158923  0.79142136    -0.56800
O673        O  0.28604227  0.63075978  0.87130106    -0.56800
O674        O  0.18594074  0.62993402  0.84146800    -0.56000
O675        O  0.75332650  0.03746789  0.75860537    -0.57200
C676        C  0.72557843  0.03416420  0.84359958     0.75400
O677        O  0.71146451  0.93551342  0.79487354    -0.58400
C678        C  0.77393574  0.01478541  0.74495928     0.75400
C679        C  0.81957810  0.96184748  0.82062889     0.77800
Cd680      Cd  0.75124412  0.99329140  0.79775689     1.37500
O681        O  0.75148040  0.04925405  0.82930640    -0.57200
O682        O  0.81563879  0.99726167  0.81691264    -0.56000
C683        C  0.68130752  0.95325304  0.78804753     0.77700
O684        O  0.79126642  0.94092955  0.81435177    -0.58400
O685        O  0.71214757  0.00270597  0.83583892    -0.56800
O686        O  0.78286726  0.98353559  0.75567590    -0.56800
O687        O  0.68474418  0.98864355  0.78386695    -0.56000
O688        O  0.75053749  0.57407750  0.81344013    -0.57200
C689        C  0.77638039  0.58756978  0.72834840     0.75400
O690        O  0.71105500  0.67831021  0.76796208    -0.58400
C691        C  0.72981466  0.59486810  0.82845514     0.75400
C692        C  0.82344781  0.66034942  0.79315273     0.77800
Cd693      Cd  0.75343989  0.62357830  0.77748331     1.37500
O694        O  0.75464566  0.56969390  0.74433852    -0.57200
O695        O  0.81875968  0.62471883  0.79520038    -0.56000
C696        C  0.68191679  0.65800496  0.76256885     0.77700
O697        O  0.79519411  0.67928131  0.78428472    -0.58400
O698        O  0.78653483  0.62071389  0.73522459    -0.56800
O699        O  0.72151776  0.62765913  0.81999573    -0.56800
O700        O  0.68698823  0.62231635  0.76231449    -0.56000
C701        C  0.43519446  0.78170658  0.98983942     0.80800
N702        N  0.41729701  0.81581118  0.99354663    -0.77500
C703        C  0.43719874  0.84906542  0.99153451     0.83300
N704        N  0.47490930  0.84773482  0.48531197    -0.77400
C705        C  0.49291928  0.81404715  0.48147552     0.83400
N706        N  0.47300428  0.78121364  0.48367539    -0.79100
C707        C  0.58579864  0.84781929  0.95625992     0.80800
N708        N  0.60320358  0.81435470  0.94933584    -0.77500
C709        C  0.58494123  0.78048904  0.95358774     0.83300
N710        N  0.54955856  0.78050251  0.46485811    -0.77400
C711        C  0.53243180  0.81360161  0.47195578     0.83400
N712        N  0.55053343  0.84690898  0.46747358    -0.79100
O713        O  0.73220227  0.06897519  0.95236218    -0.57200
C714        C  0.71098585  0.05045242  0.86843155     0.75400
O715        O  0.62636037  0.02621669  0.92939332    -0.58400
C716        C  0.71303490  0.08774702  0.96949339     0.75400
C717        C  0.63966970  0.13811104  0.90397212     0.77800
Cd718      Cd  0.67942234  0.06995859  0.91885931     1.37500
O719        O  0.73120753  0.07012283  0.88453503    -0.57200
O720        O  0.67573583  0.13553533  0.90250304    -0.56000
C721        C  0.64746434  0.99702137  0.93202994     0.77700
O722        O  0.62198446  0.10874710  0.91212381    -0.58400
O723        O  0.67731503  0.04233897  0.87552827    -0.56800
O724        O  0.68007378  0.09863842  0.96266977    -0.56800
O725        O  0.68297320  0.00208143  0.92889331    -0.56000
O726        O  0.26258992  0.57032920  0.99430138    -0.57200
C727        C  0.28678163  0.58991937  0.90888796     0.75400
O728        O  0.37350539  0.60876782  0.97025167    -0.58400
C729        C  0.28322199  0.55191189  0.01076077     0.75400
C730        C  0.34941522  0.49736213  0.94957173     0.77800
Cd731      Cd  0.31640518  0.57092885  0.96080685     1.37500
O732        O  0.26666098  0.57024609  0.92486939    -0.57200
O733        O  0.31384223  0.50353322  0.94819178    -0.56000
C734        C  0.35547005  0.63911989  0.97598270     0.77700
O735        O  0.37030624  0.52596245  0.95510656    -0.58400
O736        O  0.31915556  0.60073925  0.91720089    -0.56800
O737        O  0.31743724  0.54553184  0.00426805    -0.56800
O738        O  0.31929742  0.63745688  0.97497818    -0.56000
O739        O  0.73008571  0.55580348  0.93798506    -0.57200
C740        C  0.71405223  0.58213952  0.85402184     0.75400
O741        O  0.61946979  0.52409824  0.89564829    -0.58400
C742        C  0.71058324  0.53344881  0.95249301     0.75400
C743        C  0.64791608  0.63426050  0.92134392     0.77800
Cd744      Cd  0.67852098  0.56171651  0.90362412     1.37500
O745        O  0.73190929  0.56071120  0.87018453    -0.57200
O746        O  0.68323503  0.62665687  0.92250169    -0.56000
C747        C  0.63678970  0.49457362  0.88716495     0.77700
O748        O  0.62637528  0.60771867  0.91273609    -0.58400
O749        O  0.68120711  0.59327421  0.86101038    -0.56800
O750        O  0.67756249  0.52475773  0.94429190    -0.56800
O751        O  0.67276353  0.49719221  0.88510581    -0.56000
C752        C  0.41551806  0.34888497  0.92873130     0.80800
N753        N  0.45002550  0.34908160  0.91621556    -0.77500
C754        C  0.46770146  0.31602020  0.90983321     0.83300
N755        N  0.45107201  0.28256785  0.91631698    -0.77400
C756        C  0.41669115  0.28142273  0.92880111     0.83400
N757        N  0.39859906  0.31489602  0.93486350    -0.79100
C758        C  0.56183177  0.28159462  0.88731160     0.80800
N759        N  0.52503960  0.28269811  0.89575476    -0.77500
C760        C  0.50593676  0.31593485  0.89797961     0.83300
N761        N  0.52375012  0.34886364  0.89161969    -0.77400
C762        C  0.56059506  0.34882916  0.88288803     0.83400
N763        N  0.57979363  0.31496292  0.88105938    -0.79100
O764        O  0.26747570  0.05874933  0.00243821    -0.57200
C765        C  0.28916932  0.03565287  0.91900428     0.75400
O766        O  0.37383075  0.10439553  0.95811621    -0.58400
C767        C  0.28558245  0.08016101  0.01864173     0.75400
C768        C  0.35988702  0.99399373  0.98505385     0.77800
Cd769      Cd  0.32024948  0.06122927  0.96887891     1.37500
O770        O  0.27086315  0.06020537  0.93261989    -0.57200
O771        O  0.32385189  0.99681617  0.98620457    -0.56000
C772        C  0.35267533  0.13329304  0.95421969     0.77700
O773        O  0.37811622  0.02356622  0.97779851    -0.58400
O774        O  0.32036735  0.02391225  0.92853772    -0.56800
O775        O  0.31823979  0.09164270  0.01158724    -0.56800
O776        O  0.31701284  0.12805324  0.95623473    -0.56000
O777        O  0.24326935  0.54810048  0.55019096    -0.57200
C778        C  0.22534775  0.50898654  0.63308387     0.75400
O779        O  0.20769196  0.43789794  0.56112076    -0.58400
C780        C  0.26893195  0.53419850  0.53503333     0.75400
C781        C  0.31718094  0.45049917  0.58620971     0.77800
Cd782      Cd  0.24621392  0.48981677  0.57950789     1.37500
O783        O  0.24685900  0.53110165  0.61984848    -0.57200
O784        O  0.31315217  0.48537692  0.59211575    -0.56000
C785        C  0.17866747  0.45837879  0.55598834     0.77700
O786        O  0.28713604  0.43261738  0.57918208    -0.58400
O787        O  0.21439030  0.47873844  0.62161781    -0.56800
O788        O  0.28298978  0.50254842  0.54146609    -0.56800
O789        O  0.18137873  0.49349356  0.56151548    -0.56000
C790        C  0.53754500  0.22496333  0.59820480     0.80800
N791        N  0.53634678  0.26323625  0.59494865    -0.77500
C792        C  0.50313981  0.28250537  0.59717961     0.83300
N793        N  0.47057052  0.26348123  0.60267850    -0.77400
C794        C  0.47069191  0.22521544  0.60608469     0.83400
N795        N  0.50436318  0.20571333  0.60343177    -0.79100
C796        C  0.46583803  0.37835493  0.58329463     0.80800
N797        N  0.46801024  0.34144176  0.59089912    -0.77500
C798        C  0.50181008  0.32296508  0.59102876     0.83300
N799        N  0.53383833  0.34135224  0.58329532    -0.77400
C800        C  0.53262516  0.37827406  0.57550624     0.83400
N801        N  0.49836642  0.39700605  0.57567151    -0.79100
C802        C  0.97015551  0.22836994  0.53603175     0.80800
N803        N  0.97139446  0.26599363  0.03027034    -0.77500
C804        C  0.00470441  0.28530043  0.03083222     0.83300
N805        N  0.03732345  0.26697175  0.03743797    -0.77400
C806        C  0.03710846  0.22926936  0.54336769     0.83400
N807        N  0.00318887  0.20985418  0.54264959    -0.79100
C808        C  0.03726067  0.38492873  0.52629927     0.80800
N809        N  0.00344365  0.40340799  0.52168656    -0.77500
C810        C  0.97030560  0.38300070  0.51900937     0.83300
N811        N  0.97153641  0.34456172  0.02142286    -0.77400
C812        C  0.00470708  0.32628651  0.02631516     0.83400
N813        N  0.03726520  0.34649856  0.02883665    -0.79100
O814        O  0.24571821  0.06888241  0.62715472    -0.57200
C815        C  0.27021590  0.09295954  0.54422982     0.75400
O816        O  0.20790547  0.17769722  0.58394316    -0.58400
C817        C  0.22654004  0.08800791  0.64411052     0.75400
C818        C  0.32167904  0.15437902  0.60835964     0.77800
Cd819      Cd  0.24851019  0.12242685  0.59497073     1.37500
O820        O  0.25200782  0.07141699  0.56018458    -0.57200
O821        O  0.31662927  0.11898013  0.60510886    -0.56000
C822        C  0.17865424  0.15791631  0.57787940     0.77700
O823        O  0.29193881  0.17517709  0.60745004    -0.58400
O824        O  0.27662457  0.12673915  0.55174245    -0.56800
O825        O  0.21857193  0.12207992  0.63827932    -0.56800
O826        O  0.18212773  0.12215538  0.57984589    -0.56000
O827        O  0.74961670  0.07577294  0.50925573    -0.57200
C828        C  0.77563234  0.07656880  0.59367284     0.75400
O829        O  0.79167662  0.17560628  0.54753331    -0.58400
C830        C  0.72744055  0.09734284  0.49610037     0.75400
C831        C  0.68089178  0.15267495  0.56976824     0.77800
Cd832      Cd  0.75007848  0.11918896  0.54882612     1.37500
O833        O  0.75239359  0.06055460  0.57760266    -0.57200
O834        O  0.68440915  0.11710931  0.56621712    -0.56000
C835        C  0.82061844  0.15789884  0.53843563     0.77700
O836        O  0.71004563  0.17285992  0.56441241    -0.58400
O837        O  0.78559775  0.11022883  0.58854642    -0.56800
O838        O  0.71666952  0.12778402  0.50733241    -0.56800
O839        O  0.81573666  0.12317905  0.53239866    -0.56000
O840        O  0.74928576  0.53497529  0.56277275    -0.57200
C841        C  0.72472081  0.51747851  0.47759449     0.75400
O842        O  0.78938101  0.42954592  0.52023799    -0.58400
C843        C  0.76839194  0.51365252  0.57837604     0.75400
C844        C  0.67486592  0.44932548  0.54274167     0.77800
Cd845      Cd  0.74599044  0.48396002  0.52749454     1.37500
O846        O  0.74509388  0.53628942  0.49406597    -0.57200
O847        O  0.68021832  0.48494633  0.54421257    -0.56000
C848        C  0.81882176  0.44973204  0.51560993     0.77700
O849        O  0.70289724  0.42944470  0.53444403    -0.58400
O850        O  0.71547663  0.48399340  0.48412289    -0.56800
O851        O  0.77500077  0.48007196  0.57056313    -0.56800
O852        O  0.81361077  0.48536712  0.51444231    -0.56000
C853        C  0.08644998  0.75933374  0.66925528     0.80800
N854        N  0.05236336  0.76054685  0.65642626    -0.77500
C855        C  0.03513582  0.79400341  0.65117376     0.83300
N856        N  0.05200721  0.82687616  0.65899959    -0.77400
C857        C  0.08627312  0.82672844  0.67182509     0.83400
N858        N  0.10372054  0.79262787  0.67692095    -0.79100
C859        C  0.93927252  0.82786931  0.63262253     0.80800
N860        N  0.92038673  0.79415775  0.62921827    -0.77500
C861        C  0.93947693  0.76038399  0.63111130     0.83300
N862        N  0.97735474  0.76082152  0.63702791    -0.77400
C863        C  0.99618612  0.79415086  0.64070362     0.83400
N864        N  0.97706160  0.82741136  0.63858231    -0.79100
O865        O  0.22984152  0.54028780  0.67571420    -0.57200
C866        C  0.21218714  0.56296484  0.75937881     0.75400
O867        O  0.12551653  0.58174384  0.69831738    -0.58400
C868        C  0.21180593  0.51823485  0.65996906     0.75400
C869        C  0.14258004  0.47079092  0.72798204     0.77800
Cd870      Cd  0.17918668  0.53884116  0.71029523     1.37500
O871        O  0.23190090  0.54187086  0.74391182    -0.57200
O872        O  0.17860646  0.47405527  0.72688548    -0.56000
C873        C  0.14717438  0.61016824  0.69387650     0.77700
O874        O  0.12301262  0.49978668  0.72133305    -0.58400
O875        O  0.17837568  0.57055377  0.75231354    -0.56800
O876        O  0.18052084  0.50467021  0.66821675    -0.56800
O877        O  0.18267338  0.60455593  0.69629748    -0.56000
O878        O  0.76860027  0.54995162  0.61951590    -0.57200
C879        C  0.79059202  0.57147000  0.70315320     0.75400
O880        O  0.87700159  0.50178181  0.65899070    -0.58400
C881        C  0.78474394  0.52645657  0.60379931     0.75400
C882        C  0.86280855  0.61445202  0.63830742     0.77800
Cd883      Cd  0.82229524  0.54623233  0.65305109     1.37500
O884        O  0.77161549  0.54839090  0.68869134    -0.57200
O885        O  0.82674196  0.61190198  0.63730969    -0.56000
C886        C  0.85686019  0.47481280  0.66835847     0.77700
O887        O  0.88073138  0.58436216  0.64473034    -0.58400
O888        O  0.82294974  0.58151554  0.69454085    -0.56800
O889        O  0.81655666  0.51317356  0.61110583    -0.56800
O890        O  0.82154785  0.48161554  0.67117916    -0.56000
O891        O  0.77093746  0.04404899  0.70153201    -0.57200
C892        C  0.79123528  0.05882690  0.61757041     0.75400
O893        O  0.87685311  0.08277649  0.67872450    -0.58400
C894        C  0.78882350  0.02384658  0.71841322     0.75400
C895        C  0.86178344  0.97014860  0.65328716     0.77800
Cd896      Cd  0.82343876  0.03942067  0.66773824     1.37500
O897        O  0.77160101  0.03838362  0.63338650    -0.57200
O898        O  0.82569997  0.97289774  0.65394013    -0.56000
C899        C  0.85590687  0.11225070  0.68068403     0.77700
O900        O  0.88062167  0.99994378  0.65936510    -0.58400
O901        O  0.82502719  0.06689777  0.62444909    -0.56800
O902        O  0.82094081  0.01085243  0.71136926    -0.56800
O903        O  0.82046626  0.10741771  0.67706151    -0.56000
C904        C  0.06746223  0.32663235  0.74067880     0.80800
N905        N  0.08517063  0.29223781  0.74354573    -0.77500
C906        C  0.06499811  0.25924463  0.74033955     0.83300
N907        N  0.02745587  0.26126907  0.73382874    -0.77400
C908        C  0.00982745  0.29520754  0.73063159     0.83400
N909        N  0.02986138  0.32773351  0.73399895    -0.79100
C910        C  0.91777266  0.26186722  0.70399924     0.80800
N911        N  0.90096771  0.29522318  0.69644794    -0.77500
C912        C  0.91925909  0.32909461  0.70084556     0.83300
N913        N  0.95429448  0.32921675  0.71270108    -0.77400
C914        C  0.97074081  0.29612851  0.72045509     0.83400
N915        N  0.95249310  0.26289006  0.71594148    -0.79100
O916        O  0.23240861  0.05025887  0.68386751    -0.57200
C917        C  0.21625542  0.02701585  0.76818985     0.75400
O918        O  0.12322460  0.08364455  0.72626480    -0.58400
C919        C  0.21252649  0.07196601  0.66911850     0.75400
C920        C  0.15023780  0.97301190  0.70325575     0.77800
Cd921      Cd  0.18143364  0.04580433  0.71854262     1.37500
O922        O  0.23342366  0.04992446  0.75267956    -0.57200
O923        O  0.18589726  0.97902116  0.70421447    -0.56000
C924        C  0.14098916  0.11308742  0.73447906     0.77700
O925        O  0.12878118  0.00120681  0.70875285    -0.58400
O926        O  0.18441716  0.01400185  0.76050730    -0.56800
O927        O  0.17943833  0.08045303  0.67719149    -0.56800
O928        O  0.17685841  0.11003614  0.73693446    -0.56000
C929        C  0.08179910  0.15238759  0.73493403    -0.20700
C930        C  0.12122046  0.14974049  0.73948030    -0.08700
C931        C  0.14167928  0.18306685  0.74628175     0.30100
C932        C  0.12308806  0.21836133  0.74738156    -0.20700
C933        C  0.08385273  0.22127914  0.74166806    -0.08800
C934        C  0.06324051  0.18752215  0.73590527     0.30100
F935        F  0.02529484  0.18816554  0.73021255    -0.19300
H936        H  0.06533595  0.12729793  0.72965818     0.18500
H937        H  0.13974646  0.24356107  0.75201073     0.18500
F938        F  0.17990952  0.18195417  0.75092177    -0.19300
C939        C  0.84786794  0.18291557  0.68512951    -0.20700
C940        C  0.87155895  0.15051696  0.68670366    -0.08700
C941        C  0.91000865  0.15524575  0.69399122     0.30100
C942        C  0.92434883  0.19148268  0.69943073    -0.20700
C943        C  0.90086361  0.22403894  0.69785708    -0.08800
C944        C  0.86229755  0.21938182  0.69061498     0.30100
F945        F  0.83838602  0.24975046  0.68925104    -0.19300
H946        H  0.81804936  0.18006247  0.67959824     0.18500
H947        H  0.95424878  0.19387274  0.70480775     0.18500
F948        F  0.93384347  0.12490335  0.69616528    -0.19300
C949        C  0.84856426  0.40721523  0.68307032    -0.20700
C950        C  0.87314357  0.43719045  0.67569378    -0.08700
C951        C  0.91282715  0.43062660  0.67565553     0.30100
C952        C  0.92736604  0.39539026  0.68378364    -0.20700
C953        C  0.90279934  0.36563687  0.69152060    -0.08800
C954        C  0.86311652  0.37172153  0.69071134     0.30100
F955        F  0.83839666  0.34390011  0.69817018    -0.19300
H956        H  0.81786572  0.41127163  0.68307132     0.18500
H957        H  0.95806946  0.39130904  0.68386683     0.18500
F958        F  0.93770375  0.45823972  0.66806259    -0.19300
C959        C  0.06820373  0.39711775  0.74589555    -0.20700
C960        C  0.08872920  0.36301917  0.74214794    -0.08700
C961        C  0.12822138  0.36496129  0.73702689     0.30100
C962        C  0.14591211  0.40037079  0.73376809    -0.20700
C963        C  0.12463372  0.43429575  0.73549860    -0.08800
C964        C  0.08586868  0.43240945  0.74264051     0.30100
F965        F  0.06478136  0.46454874  0.74593156    -0.19300
H966        H  0.03793854  0.39652646  0.75049664     0.18500
H967        H  0.17596588  0.40111657  0.72854701     0.18500
F968        F  0.14928876  0.33288535  0.73340013    -0.19300
C969        C  0.87911012  0.86506708  0.63956708    -0.20700
C970        C  0.91845828  0.86460531  0.63406513    -0.08700
C971        C  0.93840436  0.89955960  0.63315518     0.30100
C972        C  0.91973405  0.93369954  0.63922467    -0.20700
C973        C  0.88077332  0.93393485  0.64585523    -0.08800
C974        C  0.86039403  0.89928379  0.64546053     0.30100
F975        F  0.82271921  0.89808813  0.65191401    -0.19300
H976        H  0.86303891  0.83873472  0.64053100     0.18500
H977        H  0.93591602  0.96000981  0.63890149     0.18500
F978        F  0.97613335  0.90087478  0.62679007    -0.19300
C979        C  0.94042715  0.68900429  0.62948200    -0.20700
C980        C  0.91914291  0.72311529  0.62980958    -0.08700
C981        C  0.87897597  0.72069157  0.63093077     0.30100
C982        C  0.86096871  0.68515546  0.63261125    -0.20700
C983        C  0.88240810  0.65126423  0.63341397    -0.08800
C984        C  0.92240623  0.65353485  0.63135390     0.30100
F985        F  0.94426384  0.62159475  0.63165005    -0.19300
H986        H  0.97134717  0.68967084  0.62842286     0.18500
H987        H  0.83010505  0.68431143  0.63427899     0.18500
F988        F  0.85698392  0.75252011  0.63164426    -0.19300
C989        C  0.14170723  0.86679433  0.68790929    -0.20700
C990        C  0.10287117  0.86370268  0.68094525    -0.08700
C991        C  0.07985119  0.89677277  0.68232156     0.30100
C992        C  0.09552799  0.93179288  0.68978594    -0.20700
C993        C  0.13442076  0.93512712  0.69601816    -0.08800
C994        C  0.15745764  0.90213183  0.69527389     0.30100
F995        F  0.19510696  0.90385734  0.70181177    -0.19300
H996        H  0.16007303  0.84197718  0.68725653     0.18500
H997        H  0.07706304  0.95655056  0.69041519     0.18500
F998        F  0.04188659  0.89558381  0.67669798    -0.19300
C999        C  0.14200136  0.71603728  0.67818924    -0.20700
C1000       C  0.10245995  0.72150853  0.67594703    -0.08700
C1001       C  0.07787083  0.68990957  0.67921528     0.30100
C1002       C  0.09264743  0.65388836  0.68468776    -0.20700
C1003       C  0.13214404  0.64828949  0.68688685    -0.08800
C1004       C  0.15684329  0.67974848  0.68335465     0.30100
F1005       F  0.19536288  0.67560932  0.68488531    -0.19300
H1006       H  0.16146474  0.73971476  0.67546424     0.18500
H1007       H  0.07300153  0.63035844  0.68740989     0.18500
F1008       F  0.03929659  0.69377595  0.67771145    -0.19300
C1009       C  0.89942485  0.37786279  0.51414232    -0.20700
C1010       C  0.93220146  0.40126900  0.51523634    -0.08700
C1011       C  0.92721460  0.44101853  0.51392623     0.30100
C1012       C  0.89025482  0.45659156  0.51288459    -0.20700
C1013       C  0.85763312  0.43296772  0.51312099    -0.08800
C1014       C  0.86276496  0.39333195  0.51321132     0.30100
F1015       F  0.83236864  0.36926993  0.01312705    -0.19300
H1016       H  0.90181911  0.34712695  0.01472594     0.18500
H1017       H  0.88717222  0.48728888  0.51275531     0.18500
F1018       F  0.95772987  0.46490839  0.51428258    -0.19300
C1019       C  0.07456798  0.17142164  0.55745009    -0.20700
C1020       C  0.07350080  0.21057220  0.55168423    -0.08700
C1021       C  0.10762914  0.23191303  0.55450256     0.30100
C1022       C  0.14137214  0.21453330  0.56303022    -0.20700
C1023       C  0.14236177  0.17556572  0.56886670    -0.08800
C1024       C  0.10855438  0.15401485  0.56590001     0.30100
F1025       F  0.10806631  0.11620591  0.57148061    -0.19300
H1026       H  0.04902204  0.15417006  0.05554507     0.18500
H1027       H  0.16691929  0.23177810  0.56501009     0.18500
F1028       F  0.10878236  0.26981283  0.54930560    -0.19300
C1029       C  0.89925845  0.23187191  0.53956667    -0.20700
C1030       C  0.93229671  0.20938586  0.53624083    -0.08700
C1031       C  0.92809319  0.16993879  0.53238797     0.30100
C1032       C  0.89155417  0.15351734  0.53231001    -0.20700
C1033       C  0.85865778  0.17606703  0.53614836    -0.08800
C1034       C  0.86292464  0.21555599  0.53950069     0.30100
F1035       F  0.83205203  0.23855516  0.54272658    -0.19300
H1036       H  0.90143443  0.26239637  0.54248306     0.18500
H1037       H  0.88906474  0.12297583  0.52965885     0.18500
F1038       F  0.95903741  0.14738577  0.02818874    -0.19300
C1039       C  0.57107075  0.43663675  0.56421394    -0.20700
C1040       C  0.56853390  0.39683286  0.56635205    -0.08700
C1041       C  0.60111163  0.37470829  0.56000288     0.30100
C1042       C  0.63511775  0.39208239  0.55209465    -0.20700
C1043       C  0.63792825  0.43179743  0.55047380    -0.08800
C1044       C  0.60541324  0.45405616  0.55649225     0.30100
F1045       F  0.60665731  0.49262747  0.55495229    -0.19300
H1046       H  0.54663419  0.45439225  0.56891298     0.18500
H1047       H  0.65953054  0.37423324  0.54748859     0.18500
F1048       F  0.60042352  0.33608319  0.56120740    -0.19300
C1049       C  0.42957395  0.16652246  0.60489871    -0.20700
C1050       C  0.43352790  0.20557793  0.61039771    -0.08700
C1051       C  0.40065576  0.22652681  0.61791793     0.30100
C1052       C  0.36474108  0.20920741  0.61836696    -0.20700
C1053       C  0.36051422  0.17069673  0.61154538    -0.08800
C1054       C  0.39349790  0.14915899  0.60542911     0.30100
F1055       F  0.39081631  0.11180865  0.59850618    -0.19300
H1056       H  0.45415669  0.14969011  0.59902216     0.18500
H1057       H  0.33997784  0.22635555  0.62336505     0.18500
F1058       F  0.40277963  0.26412485  0.62427450    -0.19300
C1059       C  0.57563195  0.16623207  0.58709861    -0.20700
C1060       C  0.57457687  0.20510080  0.59382111    -0.08700
C1061       C  0.60928120  0.22576284  0.59419270     0.30100
C1062       C  0.64356759  0.20833228  0.58675393    -0.20700
C1063       C  0.64447374  0.16984601  0.57917325    -0.08800
C1064       C  0.61016670  0.14868608  0.57986198     0.30100
F1065       F  0.60960985  0.11137307  0.57263269    -0.19300
H1066       H  0.54952630  0.14964402  0.58654572     0.18500
H1067       H  0.66950703  0.22520549  0.58674159     0.18500
F1068       F  0.61032122  0.26304615  0.60156769    -0.19300
C1069       C  0.14278098  0.40323552  0.53756472    -0.20700
C1070       C  0.14312169  0.44172710  0.54495414    -0.08700
C1071       C  0.10892800  0.46288087  0.54312833     0.30100
C1072       C  0.07458026  0.44478892  0.03603755    -0.20700
C1073       C  0.07392595  0.40557705  0.53027367    -0.08800
C1074       C  0.10886509  0.38534460  0.53015058     0.30100
F1075       F  0.11052733  0.34788321  0.52336766    -0.19300
H1076       H  0.16878522  0.38650084  0.53811926     0.18500
H1077       H  0.04837317  0.46120357  0.03596174     0.18500
F1078       F  0.10829492  0.50065264  0.04907348    -0.19300
C1079       C  0.35837643  0.39279472  0.58233599    -0.20700
C1080       C  0.35530534  0.43220439  0.58635661    -0.08700
C1081       C  0.38904506  0.45405015  0.58876891     0.30100
C1082       C  0.42494139  0.43663071  0.58698652    -0.20700
C1083       C  0.42794702  0.39714176  0.58331966    -0.08800
C1084       C  0.39415091  0.37531684  0.58098544     0.30100
F1085       F  0.39546384  0.33704296  0.57698416    -0.19300
H1086       H  0.33298770  0.37536658  0.58015274     0.18500
H1087       H  0.45040572  0.45397704  0.58903220     0.18500
F1088       F  0.38752792  0.49232682  0.59256477    -0.19300
C1089       C  0.36162864  0.24019255  0.94332033    -0.20700
C1090       C  0.40022112  0.24366443  0.93595416    -0.08700
C1091       C  0.42298491  0.21033884  0.93506152     0.30100
C1092       C  0.40726803  0.17481053  0.94099443    -0.20700
C1093       C  0.36864143  0.17130769  0.94790783    -0.08800
C1094       C  0.34588225  0.20445044  0.94915393     0.30100
F1095       F  0.30849032  0.20250729  0.95630728    -0.19300
H1096       H  0.34343596  0.26511498  0.94430689     0.18500
H1097       H  0.42548470  0.14988595  0.94006108     0.18500
F1098       F  0.46071582  0.21174703  0.92875899    -0.19300
C1099       C  0.63788954  0.42474058  0.87639341    -0.20700
C1100       C  0.61669745  0.45817286  0.88129816    -0.08700
C1101       C  0.57667240  0.45554659  0.88268521     0.30100
C1102       C  0.55872503  0.42003242  0.88137109    -0.20700
C1103       C  0.58008259  0.38615019  0.87880216    -0.08800
C1104       C  0.61988896  0.38908492  0.87500861     0.30100
F1105       F  0.64177234  0.35762255  0.87114577    -0.19300
H1106       H  0.66874218  0.42593022  0.87474515     0.18500
H1107       H  0.52793345  0.41914313  0.88355206     0.18500
F1108       F  0.55479898  0.48706665  0.88635832    -0.19300
C1109       C  0.40506679  0.45288219  0.94790401    -0.20700
C1110       C  0.36558936  0.45873544  0.94518226    -0.08700
C1111       C  0.34207069  0.42729992  0.93864270     0.30100
C1112       C  0.35812278  0.39118983  0.93420905    -0.20700
C1113       C  0.39778478  0.38583603  0.93602288    -0.08800
C1114       C  0.42103623  0.41696641  0.94339661     0.30100
F1115       F  0.45935058  0.41264057  0.94653065    -0.19300
H1116       H  0.42378427  0.47623333  0.95341920     0.18500
H1117       H  0.33967768  0.36768173  0.92856494     0.18500
F1118       F  0.30364868  0.43143267  0.93613942    -0.19300
C1119       C  0.56138513  0.21144421  0.89527054    -0.20700
C1120       C  0.58214011  0.24431411  0.88808806    -0.08700
C1121       C  0.62183253  0.24093640  0.88401500     0.30100
C1122       C  0.64021757  0.20603511  0.88851001    -0.20700
C1123       C  0.61950818  0.17387521  0.89705058    -0.08800
C1124       C  0.57967007  0.17681454  0.89982764     0.30100
F1125       F  0.55826645  0.14660095  0.90773629    -0.19300
H1126       H  0.53074011  0.21255424  0.89823149     0.18500
H1127       H  0.67091870  0.20445737  0.88590202     0.18500
F1128       F  0.64315344  0.27136338  0.87650036    -0.19300
C1129       C  0.64142870  0.73793181  0.44460116    -0.20700
C1130       C  0.60170875  0.74374914  0.94457897    -0.08700
C1131       C  0.57768675  0.71366421  0.93625814     0.30100
C1132       C  0.59301748  0.67846303  0.92878471    -0.20700
C1133       C  0.63260296  0.67215785  0.92937264    -0.08800
C1134       C  0.65683808  0.70247966  0.93717872     0.30100
F1135       F  0.69538727  0.69804208  0.43764465    -0.19300
H1136       H  0.66051770  0.76063078  0.45081303     0.18500
H1137       H  0.57368260  0.65602025  0.92249535     0.18500
F1138       F  0.53922622  0.71840409  0.93472795    -0.19300
C1139       C  0.65619389  0.92688838  0.93902837    -0.20700
C1140       C  0.63184658  0.95885527  0.93827975    -0.08700
C1141       C  0.59274062  0.95378610  0.94347497     0.30100
C1142       C  0.57846135  0.91765568  0.94918395    -0.20700
C1143       C  0.60263454  0.88555667  0.94993769    -0.08800
C1144       C  0.64182830  0.89055063  0.94480027     0.30100
F1145       F  0.66638952  0.86067919  0.94590359    -0.19300
H1146       H  0.68650866  0.92999106  0.93518129     0.18500
H1147       H  0.54807700  0.91493495  0.45289127     0.18500
F1148       F  0.56813688  0.98367990  0.44321964    -0.19300
C1149       C  0.37754622  0.88840238  0.99509551    -0.20700
C1150       C  0.41761449  0.88656232  0.99345120    -0.08700
C1151       C  0.43844648  0.92098254  0.99185603     0.30100
C1152       C  0.41944140  0.95585396  0.99032944    -0.20700
C1153       C  0.37941935  0.95746567  0.99054109    -0.08800
C1154       C  0.35855982  0.92339612  0.99371464     0.30100
F1155       F  0.31975166  0.92352614  0.99427534    -0.19300
H1156       H  0.36065647  0.86263213  0.99652330     0.18500
H1157       H  0.43619416  0.98162213  0.98819233     0.18500
F1158       F  0.47723380  0.92124175  0.99100790    -0.19300
C1159       C  0.43417826  0.71072783  0.98920643    -0.20700
C1160       C  0.41374617  0.74525182  0.98987485    -0.08700
C1161       C  0.37354510  0.74406463  0.98834949     0.30100
C1162       C  0.35472030  0.70922956  0.98483529    -0.20700
C1163       C  0.37546146  0.67503927  0.98268258    -0.08800
C1164       C  0.41541190  0.67605152  0.98557093     0.30100
F1165       F  0.43661876  0.64372349  0.98419026    -0.19300
H1166       H  0.46506999  0.71049269  0.99072768     0.18500
H1167       H  0.32388093  0.70922573  0.98283972     0.18500
F1168       F  0.35239549  0.77646524  0.98894577    -0.19300
C1169       C  0.39354316  0.72591501  0.77810089    -0.20700
C1170       C  0.42696124  0.70355551  0.77632537    -0.08700
C1171       C  0.42424892  0.66438915  0.78186389     0.30100
C1172       C  0.38936432  0.64880105  0.79048192    -0.20700
C1173       C  0.35672196  0.67191705  0.79381875    -0.08800
C1174       C  0.35906658  0.71055939  0.78693955     0.30100
F1175       F  0.32830019  0.73391746  0.78925140    -0.19300
H1176       H  0.39420129  0.75604097  0.77351187     0.18500
H1177       H  0.38826406  0.61881314  0.79544357     0.18500
F1178       F  0.45543947  0.64152730  0.78024759    -0.19300
C1179       C  0.60148502  0.72955968  0.75666639    -0.20700
C1180       C  0.56874760  0.70616976  0.75871250    -0.08700
C1181       C  0.57384000  0.66641813  0.75858354     0.30100
C1182       C  0.61082806  0.65091929  0.75832146    -0.20700
C1183       C  0.64339004  0.67461147  0.75832999    -0.08800
C1184       C  0.63823551  0.71416843  0.75674344     0.30100
F1185       F  0.66861328  0.73825504  0.75628955    -0.19300
H1186       H  0.59896594  0.76029064  0.75611980     0.18500
H1187       H  0.61394754  0.62026806  0.75936254     0.18500
F1188       F  0.54343257  0.64249760  0.75989679    -0.19300
C1189       C  0.39967546  0.87311480  0.81158378    -0.20700
C1190       C  0.43091304  0.89584995  0.80369905    -0.08700
C1191       C  0.42649637  0.93567367  0.80381466     0.30100
C1192       C  0.39152775  0.95205490  0.81130762    -0.20700
C1193       C  0.36040498  0.92927566  0.81929302    -0.08800
C1194       C  0.36499976  0.88948505  0.81950115     0.30100
F1195       F  0.33613542  0.86623413  0.82740344    -0.19300
H1196       H  0.40210847  0.84236097  0.81194675     0.18500
H1197       H  0.38892659  0.98279257  0.81100437     0.18500
F1198       F  0.45562833  0.95885829  0.79633423    -0.19300
C1199       C  0.57395691  0.93691933  0.78537040    -0.20700
C1200       C  0.57174132  0.89716408  0.78756457    -0.08700
C1201       C  0.60605030  0.87598551  0.78896148     0.30100
C1202       C  0.64143527  0.89437043  0.78842083    -0.20700
C1203       C  0.64365511  0.93409901  0.78631155    -0.08800
C1204       C  0.60946421  0.95527731  0.78455227     0.30100
F1205       F  0.61014550  0.99382376  0.78263734    -0.19300
H1206       H  0.54815615  0.95386378  0.78406678     0.18500
H1207       H  0.66719823  0.87740609  0.78999406     0.18500
F1208       F  0.60568374  0.83749442  0.79155151    -0.19300
C1209       C  0.10396292  0.73898794  0.83090589    -0.20700
C1210       C  0.07066629  0.71629487  0.83039082    -0.08700
C1211       C  0.07461215  0.67651669  0.83186126     0.30100
C1212       C  0.11098458  0.66018110  0.83438919    -0.20700
C1213       C  0.14415061  0.68299937  0.83492792    -0.08800
C1214       C  0.14022091  0.72266106  0.83293243     0.30100
F1215       F  0.17132235  0.74580461  0.83297088    -0.19300
H1216       H  0.10211848  0.76972126  0.82957880     0.18500
H1217       H  0.11322170  0.62944728  0.83539776     0.18500
F1218       F  0.04352330  0.65338587  0.83115644    -0.19300
C1219       C  0.92801716  0.67608773  0.81147003    -0.20700
C1220       C  0.92937200  0.71588740  0.81459182    -0.08700
C1221       C  0.89536318  0.73693830  0.81059099     0.30100
C1222       C  0.86135962  0.71857047  0.80365188    -0.20700
C1223       C  0.85999664  0.67891231  0.80066969    -0.08800
C1224       C  0.89373841  0.65769557  0.80467793     0.30100
F1225       F  0.89388216  0.61924972  0.80164433    -0.19300
H1226       H  0.95348115  0.65905915  0.81437563     0.18500
H1227       H  0.83587420  0.73558083  0.80072239     0.18500
F1228       F  0.89458452  0.77545054  0.81311317    -0.19300
C1229       C  0.07203133  0.94620811  0.85388703    -0.20700
C1230       C  0.06715618  0.90705781  0.85834701    -0.08700
C1231       C  0.09939849  0.88506819  0.86553042     0.31700
C1232       C  0.13574922  0.90138179  0.86626552    -0.20700
C1233       C  0.14097427  0.93993221  0.86020343    -0.08800
C1234       C  0.10855738  0.96261044  0.85480270     0.30100
F1235       F  0.11224901  0.00010474  0.84878192    -0.19300
H1236       H  0.04786510  0.96381789  0.84839060     0.18500
H1237       H  0.16006523  0.88344161  0.87085848     0.18500
F1238       F  0.09618770  0.84740648  0.87121476    -0.19300
C1239       C  0.85667063  0.90722978  0.83866674    -0.20700
C1240       C  0.85572137  0.94551347  0.83090563    -0.08700
C1241       C  0.88993194  0.96683817  0.83151361     0.30100
C1242       C  0.92469484  0.94917375  0.83789262    -0.20700
C1243       C  0.92586173  0.91016624  0.84393681    -0.08800
C1244       C  0.89114259  0.88974628  0.84531126     0.30100
F1245       F  0.89038867  0.85249408  0.85252202    -0.19300
H1246       H  0.83070707  0.89040012  0.83899442     0.18500
H1247       H  0.95085581  0.96562191  0.83687327     0.18500
F1248       F  0.89021874  0.00421186  0.82464865    -0.19300
loop_ 
_geom_bond_atom_site_label_1 
_geom_bond_atom_site_label_2 
_geom_bond_distance 
_geom_bond_site_symmetry_2 
_ccdc_geom_bond_type 
C1            N2   1.368       .  A
C1            N6   1.356       .  A
C1          C619   1.483       .  S
N2            C3   1.367   1_655  A
C3            N4   1.354       .  A
C3          C606   1.485       .  S
N4            C5   1.349   1_455  A
C5            N6   1.349       .  A
C5            C9   1.457       .  S
C7            N8   1.353       .  A
C7           N12   1.367   1_455  A
C7          C586   1.486       .  S
N8            C9   1.348   1_455  A
C9           N10   1.351       .  A
N10          C11   1.357       .  A
C11          N12   1.368       .  A
C11         C596   1.490       .  S
C13          N14   1.354       .  A
C13          N18   1.367       .  A
C13         C576   1.484       .  S
N14          C15   1.350       .  A
C15          N16   1.352       .  A
C15          C23   1.456       .  S
N16          C17   1.357       .  A
C17          N18   1.367       .  A
C17         C566   1.488       .  S
C19          N20   1.371       .  A
C19          N24   1.355       .  A
C19         C546   1.489       .  S
N20          C21   1.371       .  A
C21          N22   1.356       .  A
C21         C556   1.492       .  S
N22          C23   1.347       .  A
C23          N24   1.346       .  A
O25          C28   1.271       .  A
O25         Cd30   2.490   1_545  S
C26         C141   1.454       .  S
C26          O35   1.263   1_545  A
C26          O31   1.268       .  A
O27          C33   1.272       .  A
O27         Cd30   2.466       .  S
C28         C293   1.452       .  S
C28          O36   1.262   1_545  A
C29         C569   1.487       .  S
C29          O34   1.271       .  A
C29          O32   1.266       .  A
Cd30         O37   2.444       .  S
Cd30         O36   2.367       .  S
Cd30         O35   2.391       .  S
Cd30         O31   2.487   1_565  S
Cd30         O34   2.486       .  S
Cd30         O32   2.448       .  S
C33         C609   1.481       .  S
C33          O37   1.265       .  A
O38          C41   1.267       .  A
O38         Cd43   2.500       .  S
C39         C242   1.454       .  S
C39          O48   1.258       .  A
C39          O44   1.268       .  A
O40          C46   1.272       .  A
O40         Cd43   2.479       .  S
C41         C103   1.462       .  S
C41          O49   1.262       .  A
C42         C549   1.484       .  S
C42          O47   1.271       .  A
C42          O45   1.266       .  A
Cd43         O50   2.437       .  S
Cd43         O49   2.425       .  S
Cd43         O48   2.371       .  S
Cd43         O44   2.516       .  S
Cd43         O47   2.466       .  S
Cd43         O45   2.454       .  S
C46         C589   1.482       .  S
C46          O50   1.266       .  A
O51          C54   1.269       .  A
O51         Cd56   2.497   1_545  S
C52          C90   1.452       .  S
C52          O61   1.259       .  A
C52          O57   1.269       .  A
O53          C59   1.272       .  A
O53         Cd56   2.463       .  S
C54         C270   1.457       .  S
C54          O62   1.261   1_545  A
C55         C616   1.480       .  S
C55          O60   1.271       .  A
C55          O58   1.265       .  A
Cd56         O63   2.431       .  S
Cd56         O62   2.392       .  S
Cd56         O61   2.359   1_565  S
Cd56         O57   2.509   1_565  S
Cd56         O60   2.457       .  S
Cd56         O58   2.449       .  S
C59         C579   1.481       .  S
C59          O63   1.266       .  A
O64          C67   1.270       .  A
O64         Cd69   2.502       .  S
C65         C255   1.460       .  S
C65          O74   1.262       .  A
C65          O70   1.269       .  A
O66          C72   1.271       .  A
O66         Cd69   2.475       .  S
C67         C116   1.459       .  S
C67          O75   1.261       .  A
C68         C599   1.482       .  S
C68          O73   1.271       .  A
C68          O71   1.266       .  A
Cd69         O76   2.444       .  S
Cd69         O75   2.396       .  S
Cd69         O74   2.402       .  S
Cd69         O70   2.504       .  S
Cd69         O73   2.462       .  S
Cd69         O71   2.449       .  S
C72         C559   1.484       .  S
C72          O76   1.265       .  A
C77          N78   1.363       .  A
C77         N706   1.358       .  A
C77         C536   1.483       .  S
N78          C79   1.363       .  A
C79         N704   1.356       .  A
C79         C526   1.487       .  S
N80          C81   1.353       .  A
N80         C703   1.356       .  A
C81          N82   1.351       .  A
C81          C87   1.461       .  S
N82         C701   1.358       .  A
C83          N84   1.366       .  A
C83         N712   1.355       .  A
C83         C519   1.485       .  S
N84          C85   1.367       .  A
C85         N710   1.359       .  A
C85         C506   1.485       .  S
N86          C87   1.353       .  A
N86         C709   1.359       .  A
C87          N88   1.349       .  A
N88         C707   1.355       .  A
O89          C92   1.267       .  A
O89         Cd94   2.487       .  S
C90          O99   1.262       .  A
C90          O95   1.270       .  A
O91          C97   1.270   1_545  A
O91         Cd94   2.466       .  S
C92         C830   1.454       .  S
C92         O100   1.262       .  A
C93         C499   1.482       .  S
C93          O98   1.270       .  A
C93          O96   1.267       .  A
Cd94        O101   2.440       .  S
Cd94        O100   2.397       .  S
Cd94         O99   2.361       .  S
Cd94         O95   2.490       .  S
Cd94         O98   2.451       .  S
Cd94         O96   2.449       .  S
C97         C516   1.481       .  S
C97         O101   1.264   1_565  A
O102        C105   1.270       .  A
O102       Cd107   2.515       .  S
C103        O112   1.263       .  A
C103        O108   1.269       .  A
O104        C110   1.270       .  A
O104       Cd107   2.442       .  S
C105        C780   1.450       .  S
C105        O113   1.260       .  A
C106        C486   1.485       .  S
C106        O111   1.271       .  A
C106        O109   1.265       .  A
Cd107       O114   2.438       .  S
Cd107       O113   2.343       .  S
Cd107       O112   2.415       .  S
Cd107       O108   2.494       .  S
Cd107       O111   2.475       .  S
Cd107       O109   2.447       .  S
C110        C539   1.478       .  S
C110        O114   1.267       .  A
O115        C118   1.268       .  A
O115       Cd120   2.494       .  S
C116        O125   1.262       .  A
C116        O121   1.268       .  A
O117        C123   1.271       .  A
O117       Cd120   2.482       .  S
C118        C841   1.458       .  S
C118        O126   1.262       .  A
C119        C509   1.487       .  S
C119        O124   1.271       .  A
C119        O122   1.265       .  A
Cd120       O127   2.450       .  S
Cd120       O126   2.409       .  S
Cd120       O125   2.399       .  S
Cd120       O121   2.502       .  S
Cd120       O124   2.477       .  S
Cd120       O122   2.467       .  S
C123        C476   1.486       .  S
C123        O127   1.266       .  A
C128        N129   1.358       .  A
C128        N133   1.367       .  A
C128        C489   1.482       .  S
N129        C130   1.352       .  A
C130        N131   1.351       .  A
C130        C136   1.462       .  S
N131        C132   1.354       .  A
C132        N133   1.367       .  A
C132        C466   1.490       .  S
C134        N135   1.354       .  A
C134        N139   1.366       .  A
C134        C496   1.490       .  S
N135        C136   1.349       .  A
C136        N137   1.352       .  A
N137        C138   1.360       .  A
C138        N139   1.368       .  A
C138        C479   1.491       .  S
O140        C143   1.269       .  A
O140       Cd145   2.491       .  S
C141        O150   1.260       .  A
C141        O146   1.268       .  A
O142        C148   1.271       .  A
O142       Cd145   2.470       .  S
C143        C815   1.452       .  S
C143        O151   1.262       .  A
C144        C529   1.480       .  S
C144        O149   1.272   1_565  A
C144        O147   1.266       .  A
Cd145       O152   2.434       .  S
Cd145       O151   2.375       .  S
Cd145       O150   2.392       .  S
Cd145       O146   2.497       .  S
Cd145       O149   2.459       .  S
Cd145       O147   2.427   1_545  S
C148        C469   1.481       .  S
C148        O152   1.265       .  A
O153        C156   1.269       .  A
O153       Cd158   2.520       .  S
C154        C244   1.455       .  S
C154        O163   1.262       .  A
C154        O159   1.268       .  A
O155        C161   1.271       .  A
O155       Cd158   2.440       .  S
C156        C729   1.450       .  S
C156        O164   1.258       .  A
C157        C456   1.480       .  S
C157        O162   1.272       .  A
C157        O160   1.266       .  A
Cd158       O165   2.441       .  S
Cd158       O164   2.334       .  S
Cd158       O163   2.406       .  S
Cd158       O159   2.470       .  S
Cd158       O162   2.466       .  S
Cd158       O160   2.429       .  S
C161        C446   1.478       .  S
C161        O165   1.265       .  A
C166        N167   1.355       .  A
C166        N171   1.368       .  A
C166        C436   1.487       .  S
N167        C168   1.349       .  A
C168        N169   1.349       .  A
C168        C174   1.455       .  S
N169        C170   1.355       .  A
C170        N171   1.369       .  A
C170        C426   1.487       .  S
C172        N173   1.354       .  A
C172        N177   1.367       .  A
C172        C459   1.481       .  S
N173        C174   1.349       .  A
C174        N175   1.350       .  A
N175        C176   1.355       .  A
C176        N177   1.367       .  A
C176        C416   1.487       .  S
C178        N183   1.367   1_655  A
C178        N803   1.353       .  A
C178        C406   1.482       .  S
N179        C180   1.348   1_655  A
N179        C802   1.353       .  A
C180        N181   1.351       .  A
C180        C188   1.457       .  S
N181        C806   1.357       .  A
C182        N183   1.368       .  A
C182        N805   1.357       .  A
C182        C396   1.492       .  S
C184        N185   1.369       .  A
C184        N813   1.356       .  A
C184        C449   1.486       .  S
N185        C186   1.368   1_455  A
C186        N811   1.356       .  A
C186        C386   1.491       .  S
N187        C188   1.349   1_655  A
N187        C810   1.356       .  A
C188        N189   1.347       .  A
N189        C808   1.356       .  A
O190        C193   1.268       .  A
O190       Cd195   2.477       .  S
C191        C767   1.452       .  S
C191        O200   1.262       .  A
C191        O196   1.270       .  A
O192        C198   1.272       .  A
O192       Cd195   2.469       .  S
C193        C295   1.453       .  S
C193        O201   1.263       .  A
C194        C429   1.482       .  S
C194        O199   1.272       .  A
C194        O197   1.265       .  A
Cd195       O202   2.440       .  S
Cd195       O201   2.396       .  S
Cd195       O200   2.371       .  S
Cd195       O196   2.488       .  S
Cd195       O199   2.471       .  S
Cd195       O197   2.438       .  S
C198        C399   1.483       .  S
C198        O202   1.266       .  A
O203        C206   1.268   1_554  A
O203       Cd208   2.484       .  S
C204        C268   1.451       .  S
C204        O213   1.259       .  A
C204        O209   1.269       .  A
O205        C211   1.271       .  A
O205       Cd208   2.458       .  S
C206        C716   1.454       .  S
C206        O214   1.261   1_556  A
C207        C439   1.484       .  S
C207        O212   1.271       .  A
C207        O210   1.266       .  A
Cd208       O215   2.442       .  S
Cd208       O214   2.392       .  S
Cd208       O213   2.356       .  S
Cd208       O209   2.514       .  S
Cd208       O212   2.470       .  S
Cd208       O210   2.456       .  S
C211        C409   1.480       .  S
C211        O215   1.265       .  A
O216        C219   1.271       .  A
O216       Cd221   2.504       .  S
C217        C742   1.458       .  S
C217        O226   1.263       .  A
C217        O222   1.269       .  A
O218        C224   1.271       .  A
O218       Cd221   2.466       .  S
C219        C257   1.457       .  S
C219        O227   1.261       .  A
C220        C419   1.482       .  S
C220        O225   1.272       .  A
C220        O223   1.266       .  A
Cd221       O228   2.453       .  S
Cd221       O227   2.375       .  S
Cd221       O226   2.407   1_554  S
Cd221       O222   2.484   1_554  S
Cd221       O225   2.461       .  S
Cd221       O223   2.447       .  S
C224        C389   1.485       .  S
C224        O228   1.266       .  A
C229        N230   1.353       .  A
C229        N234   1.368       .  A
C229        C376   1.481       .  S
N230        C231   1.347       .  A
C231        N232   1.352       .  A
C231        C239   1.458   1_455  S
N232        C233   1.358       .  A
C233        N234   1.369       .  A
C233        C366   1.490       .  S
C235        N236   1.365       .  A
C235        N240   1.355       .  A
C235        C346   1.483       .  S
N236        C237   1.365       .  A
C237        N238   1.357       .  A
C237        C356   1.490       .  S
N238        C239   1.354       .  A
C239        N240   1.350       .  A
O241        C244   1.267       .  A
O241       Cd246   2.471       .  S
C242        O251   1.262       .  A
C242        O247   1.270       .  A
O243        C249   1.273       .  A
O243       Cd246   2.481       .  S
C244        O252   1.263       .  A
C245        C339   1.476       .  S
C245        O250   1.272       .  A
C245        O248   1.266       .  A
Cd246       O253   2.416       .  S
Cd246       O252   2.409       .  S
Cd246       O251   2.364       .  S
Cd246       O247   2.491       .  S
Cd246       O250   2.459       .  S
Cd246       O248   2.423       .  S
C249        C379   1.481       .  S
C249        O253   1.263       .  A
O254        C257   1.267       .  A
O254       Cd259   2.515       .  S
C255        O264   1.261       .  A
C255        O260   1.268       .  A
O256        C262   1.270       .  A
O256       Cd259   2.488       .  S
C257        O265   1.261       .  A
C258        C359   1.484       .  S
C258        O263   1.271       .  A
C258        O261   1.266       .  A
Cd259       O266   2.445       .  S
Cd259       O265   2.392       .  S
Cd259       O264   2.403       .  S
Cd259       O260   2.509       .  S
Cd259       O263   2.479       .  S
Cd259       O261   2.443       .  S
C262        C326   1.485       .  S
C262        O266   1.266       .  A
O267        C270   1.267       .  A
O267       Cd272   2.495       .  S
C268        O277   1.262       .  A
C268        O273   1.269       .  A
O269        C275   1.271       .  A
O269       Cd272   2.469       .  S
C270        O278   1.262       .  A
C271        C349   1.480       .  S
C271        O276   1.271       .  A
C271        O274   1.266       .  A
Cd272       O279   2.432       .  S
Cd272       O278   2.397       .  S
Cd272       O277   2.365       .  S
Cd272       O273   2.491       .  S
Cd272       O276   2.468   1_545  S
Cd272       O274   2.432   1_545  S
C275        C316   1.480       .  S
C275        O279   1.264       .  A
C280        N281   1.365       .  A
C280        N285   1.357       .  A
C280        C336   1.479       .  S
N281        C282   1.365       .  A
C282        N283   1.354       .  A
C282        C309   1.489       .  S
N283        C284   1.352       .  A
C284        N285   1.349       .  A
C284        C290   1.458   1_455  S
C286        N287   1.365       .  A
C286        N291   1.352       .  A
C286        C319   1.484       .  S
N287        C288   1.367       .  A
C288        N289   1.360       .  A
C288        C329   1.483       .  S
N289        C290   1.354       .  A
C290        N291   1.348       .  A
O292        C295   1.268       .  A
O292       Cd297   2.487       .  S
C293        O302   1.262       .  A
C293        O298   1.268       .  A
O294        C300   1.271       .  A
O294       Cd297   2.461       .  S
C295        O303   1.261       .  A
C296        C369   1.483       .  S
C296        O301   1.271   1_565  A
C296        O299   1.266       .  A
Cd297       O304   2.435       .  S
Cd297       O303   2.396       .  S
Cd297       O302   2.375       .  S
Cd297       O298   2.491       .  S
Cd297       O301   2.464       .  S
Cd297       O299   2.452   1_545  S
C300        C306   1.481       .  S
C300        O304   1.265       .  A
C305        C306   1.400       .  A
C305        C310   1.395       .  A
C305        H312   1.083       .  S
C306        C307   1.411       .  A
C307        C308   1.400       .  A
C307        F314   1.357       .  S
C308        C309   1.405       .  A
C308        H313   1.083       .  S
C309        C310   1.415       .  A
C310        F311   1.357       .  S
C315        C316   1.410       .  A
C315        C320   1.401       .  A
C315        H322   1.083       .  S
C316        C317   1.402       .  A
C317        C318   1.393       .  A
C317        F324   1.358       .  S
C318        C319   1.410       .  A
C318        H323   1.082       .  S
C319        C320   1.405       .  A
C320        F321   1.357       .  S
C325        C326   1.409       .  A
C325        C330   1.400       .  A
C325        H332   1.083       .  S
C326        C327   1.407       .  A
C327        C328   1.399       .  A
C327        F334   1.357       .  S
C328        C329   1.407       .  A
C328        H333   1.083       .  S
C329        C330   1.405       .  A
C330        F331   1.357       .  S
C335        C336   1.408       .  A
C335        C340   1.394       .  A
C335        H342   1.083       .  S
C336        C337   1.406       .  A
C337        C338   1.398       .  A
C337        F344   1.357       .  S
C338        C339   1.407       .  A
C338        H343   1.083       .  S
C339        C340   1.403       .  A
C340        F341   1.357       .  S
C345        C346   1.403       .  A
C345        C350   1.398       .  A
C345        H352   1.083       .  S
C346        C347   1.412       .  A
C347        C348   1.397       .  A
C347        F354   1.358       .  S
C348        C349   1.402       .  A
C348        H353   1.083       .  S
C349        C350   1.410       .  A
C350        F351   1.357       .  S
C355        C356   1.410       .  A
C355        C360   1.399       .  A
C355        H362   1.083       .  S
C356        C357   1.409       .  A
C357        C358   1.400       .  A
C357        F364   1.357       .  S
C358        C359   1.407       .  A
C358        H363   1.083       .  S
C359        C360   1.405       .  A
C360        F361   1.357       .  S
C365        C366   1.406       .  A
C365        C370   1.404       .  A
C365        H372   1.083       .  S
C366        C367   1.414       .  A
C367        C368   1.395       .  A
C367        F374   1.357       .  S
C368        C369   1.400       .  A
C368        H373   1.083       .  S
C369        C370   1.412       .  A
C370        F371   1.357       .  S
C375        C376   1.401       .  A
C375        C380   1.401       .  A
C375        H382   1.083       .  S
C376        C377   1.413       .  A
C377        C378   1.394       .  A
C377        F384   1.358       .  S
C378        C379   1.400       .  A
C378        H383   1.083       .  S
C379        C380   1.413       .  A
C380        F381   1.357       .  S
C385        C386   1.411       .  A
C385        C390   1.393       .  A
C385       H1016   1.083       .  S
C386        C387   1.408       .  A
C387        C388   1.405       .  A
C387        F394   1.357       .  S
C388        C389   1.410       .  A
C388        H393   1.083       .  S
C389        C390   1.403       .  A
C390       F1015   1.357       .  S
F391       C1014   1.357       .  S
H392       C1009   1.083       .  S
C395        C396   1.406       .  A
C395        C400   1.402       .  A
C395       H1026   1.083       .  S
C396        C397   1.416       .  A
C397        C398   1.396       .  A
C397        F404   1.357       .  S
C398        C399   1.400       .  A
C398        H403   1.083       .  S
C399        C400   1.411       .  A
C400        F401   1.357       .  S
H402       C1019   1.083       .  S
C405        C406   1.409       .  A
C405        C410   1.394       .  A
C405        H412   1.083       .  S
C406        C407   1.405       .  A
C407        C408   1.402       .  A
C407       F1038   1.357       .  S
C408        C409   1.409       .  A
C408        H413   1.083       .  S
C409        C410   1.403       .  A
C410        F411   1.358       .  S
F414       C1031   1.357       .  S
C415        C416   1.405       .  A
C415        C420   1.402       .  A
C415        H422   1.083       .  S
C416        C417   1.414       .  A
C417        C418   1.394       .  A
C417        F424   1.358       .  S
C418        C419   1.400       .  A
C418        H423   1.083       .  S
C419        C420   1.412       .  A
C420        F421   1.357       .  S
C425        C426   1.404       .  A
C425        C430   1.401       .  A
C425        H432   1.083       .  S
C426        C427   1.415       .  A
C427        C428   1.396       .  A
C427        F434   1.358       .  S
C428        C429   1.400       .  A
C428        H433   1.083       .  S
C429        C430   1.412       .  A
C430        F431   1.357       .  S
C435        C436   1.404       .  A
C435        C440   1.402       .  A
C435        H442   1.083       .  S
C436        C437   1.414       .  A
C437        C438   1.396       .  A
C437        F444   1.358       .  S
C438        C439   1.401       .  A
C438        H443   1.083       .  S
C439        C440   1.411       .  A
C440        F441   1.357       .  S
C445        C446   1.399       .  A
C445        C450   1.391       .  A
C445        H452   1.083       .  S
C446        C447   1.411       .  A
C447       C1072   1.403       .  A
C447       F1078   1.357       .  S
C448       C1071   1.403       .  A
C448       C1073   1.405       .  A
C448        H453   1.083       .  S
C449        C450   1.414       .  A
C449       C1072   1.405       .  A
C450        F451   1.357       .  S
F454       C1071   1.357       .  S
C455        C456   1.401       .  A
C455        C460   1.395       .  A
C455        H462   1.083       .  S
C456        C457   1.412       .  A
C457        C458   1.399       .  A
C457        F464   1.357       .  S
C458        C459   1.401       .  A
C458        H463   1.083       .  S
C459        C460   1.413       .  A
C460        F461   1.358       .  S
C465        C466   1.404       .  A
C465        C470   1.402       .  A
C465        H472   1.083       .  S
C466        C467   1.416       .  A
C467        C468   1.396       .  A
C467        F474   1.357       .  S
C468        C469   1.400       .  A
C468        H473   1.083       .  S
C469        C470   1.411       .  A
C470        F471   1.357       .  S
C475        C476   1.409       .  A
C475        C480   1.402       .  A
C475        H482   1.083       .  S
C476        C477   1.405       .  A
C477        C478   1.397       .  A
C477        F484   1.357       .  S
C478        C479   1.410       .  A
C478        H483   1.083       .  S
C479        C480   1.409       .  A
C480        F481   1.357       .  S
C485        C486   1.403       .  A
C485        C490   1.396       .  A
C485        H492   1.083       .  S
C486        C487   1.413       .  A
C487        C488   1.403       .  A
C487        F494   1.357       .  S
C488        C489   1.403       .  A
C488        H493   1.083       .  S
C489        C490   1.409       .  A
C490        F491   1.358       .  S
C495        C496   1.410       .  A
C495        C500   1.393       .  A
C495        H502   1.083       .  S
C496        C497   1.408       .  A
C497        C498   1.403       .  A
C497        F504   1.356       .  S
C498        C499   1.408       .  A
C498        H503   1.083       .  S
C499        C500   1.404       .  A
C500        F501   1.358       .  S
C505       C1130   1.404       .  A
C505       C1134   1.404       .  A
C505        H512   1.083       .  S
C506        C507   1.410       .  A
C506       C1129   1.404       .  A
C507        C508   1.396       .  A
C507        F514   1.358       .  S
C508        C509   1.403       .  A
C508        H513   1.083       .  S
C509        C510   1.413       .  A
C510       C1129   1.404       .  A
C510       F1135   1.357       .  S
F511       C1134   1.357       .  S
C515        C516   1.410       .  A
C515        C520   1.402       .  A
C515        H522   1.083       .  S
C516        C517   1.404       .  A
C517        C518   1.393       .  A
C517       F1148   1.358       .  S
C518        C519   1.410       .  A
C518       H1147   1.083       .  S
C519        C520   1.406       .  A
C520        F521   1.357       .  S
H523       C1142   1.083       .  S
F524       C1141   1.358       .  S
C525        C526   1.405       .  A
C525        C530   1.399       .  A
C525        H532   1.083       .  S
C526        C527   1.413       .  A
C527        C528   1.396       .  A
C527        F534   1.357       .  S
C528        C529   1.401       .  A
C528        H533   1.083       .  S
C529        C530   1.410       .  A
C530        F531   1.358       .  S
C535        C536   1.407       .  A
C535        C540   1.394       .  A
C535        H542   1.083       .  S
C536        C537   1.409       .  A
C537        C538   1.399       .  A
C537        F544   1.357       .  S
C538        C539   1.406       .  A
C538        H543   1.083       .  S
C539        C540   1.405       .  A
C540        F541   1.357       .  S
C545        C546   1.411       .  A
C545        C550   1.393       .  A
C545        H552   1.083       .  S
C546        C547   1.407       .  A
C547        C548   1.405       .  A
C547        F554   1.357       .  S
C548        C549   1.410       .  A
C548        H553   1.083       .  S
C549        C550   1.403       .  A
C550        F551   1.358       .  S
C555        C556   1.413       .  A
C555        C560   1.395       .  A
C555        H562   1.083       .  S
C556        C557   1.407       .  A
C557        C558   1.404       .  A
C557        F564   1.357       .  S
C558        C559   1.410       .  A
C558        H563   1.083       .  S
C559        C560   1.403       .  A
C560        F561   1.358       .  S
C565        C566   1.410       .  A
C565        C570   1.398       .  A
C565        H572   1.083       .  S
C566        C567   1.407       .  A
C567        C568   1.402       .  A
C567        F574   1.357       .  S
C568        C569   1.409       .  A
C568        H573   1.083       .  S
C569        C570   1.406       .  A
C570        F571   1.357       .  S
C575        C576   1.402       .  A
C575        C580   1.400       .  A
C575        H582   1.083       .  S
C576        C577   1.414       .  A
C577        C578   1.396       .  A
C577        F584   1.358       .  S
C578        C579   1.401       .  A
C578        H583   1.083       .  S
C579        C580   1.411       .  A
C580        F581   1.357       .  S
C585        C586   1.411       .  A
C585        C590   1.396       .  A
C585        H592   1.083       .  S
C586        C587   1.405       .  A
C587        C588   1.401       .  A
C587        F594   1.357       .  S
C588        C589   1.410       .  A
C588        H593   1.083       .  S
C589        C590   1.403       .  A
C590        F591   1.357       .  S
C595        C596   1.406       .  A
C595        C600   1.402       .  A
C595        H602   1.083       .  S
C596        C597   1.415       .  A
C597        C598   1.395       .  A
C597        F604   1.357       .  S
C598        C599   1.400       .  A
C598        H603   1.083       .  S
C599        C600   1.410       .  A
C600        F601   1.357       .  S
C605        C606   1.403       .  A
C605        C610   1.402       .  A
C605        H612   1.083       .  S
C606        C607   1.414       .  A
C607        C608   1.395       .  A
C607        F614   1.358       .  S
C608        C609   1.400       .  A
C608        H613   1.083       .  S
C609        C610   1.412       .  A
C610        F611   1.357   1_565  S
C615        C616   1.400       .  A
C615        C620   1.393       .  A
C615        H622   1.083       .  S
C616        C617   1.411       .  A
C617        C618   1.402       .  A
C617        F624   1.357   1_565  S
C618        C619   1.404       .  A
C618        H623   1.083       .  S
C619        C620   1.412       .  A
C620        F621   1.358       .  S
C625        N626   1.368       .  A
C625        N630   1.356       .  A
C625       C1243   1.483       .  S
N626        C627   1.367   1_655  A
C627        N628   1.354       .  A
C627       C1230   1.485       .  S
N628        C629   1.349   1_455  A
C629        N630   1.349       .  A
C629        C633   1.457       .  S
C631        N632   1.353       .  A
C631        N636   1.367   1_455  A
C631       C1210   1.486       .  S
N632        C633   1.348   1_455  A
C633        N634   1.351       .  A
N634        C635   1.357       .  A
C635        N636   1.368       .  A
C635       C1220   1.490       .  S
C637        N638   1.354       .  A
C637        N642   1.367       .  A
C637       C1200   1.484       .  S
N638        C639   1.350       .  A
C639        N640   1.352       .  A
C639        C647   1.456       .  S
N640        C641   1.357       .  A
C641        N642   1.367       .  A
C641       C1190   1.488       .  S
C643        N644   1.371       .  A
C643        N648   1.355       .  A
C643       C1170   1.489       .  S
N644        C645   1.371       .  A
C645        N646   1.356       .  A
C645       C1180   1.492       .  S
N646        C647   1.347       .  A
C647        N648   1.346       .  A
O649        C652   1.270       .  A
O649       Cd654   2.490   1_545  S
C650        C765   1.454       .  S
C650        O659   1.263   1_545  A
C650        O655   1.268       .  A
O651        C657   1.272       .  A
O651       Cd654   2.466       .  S
C652        C917   1.453       .  S
C652        O660   1.262   1_545  A
C653       C1193   1.487       .  S
C653        O658   1.271       .  A
C653        O656   1.266       .  A
Cd654       O661   2.444       .  S
Cd654       O660   2.367       .  S
Cd654       O659   2.391       .  S
Cd654       O655   2.487   1_565  S
Cd654       O658   2.486       .  S
Cd654       O656   2.448       .  S
C657       C1233   1.481       .  S
C657        O661   1.265       .  A
O662        C665   1.267       .  A
O662       Cd667   2.500       .  S
C663        C866   1.454       .  S
C663        O672   1.258       .  A
C663        O668   1.268       .  A
O664        C670   1.272       .  A
O664       Cd667   2.479       .  S
C665        C727   1.462       .  S
C665        O673   1.262       .  A
C666       C1173   1.484       .  S
C666        O671   1.271       .  A
C666        O669   1.266       .  A
Cd667       O674   2.437       .  S
Cd667       O673   2.425       .  S
Cd667       O672   2.371       .  S
Cd667       O668   2.516       .  S
Cd667       O671   2.466       .  S
Cd667       O669   2.454       .  S
C670       C1213   1.482       .  S
C670        O674   1.266       .  A
O675        C678   1.269       .  A
O675       Cd680   2.497   1_545  S
C676        C714   1.452       .  S
C676        O685   1.259       .  A
C676        O681   1.269       .  A
O677        C683   1.272       .  A
O677       Cd680   2.463       .  S
C678        C894   1.457       .  S
C678        O686   1.261   1_545  A
C679       C1240   1.480       .  S
C679        O684   1.271       .  A
C679        O682   1.265       .  A
Cd680       O687   2.431       .  S
Cd680       O686   2.392       .  S
Cd680       O685   2.359   1_565  S
Cd680       O681   2.509   1_565  S
Cd680       O684   2.457       .  S
Cd680       O682   2.449       .  S
C683       C1203   1.481       .  S
C683        O687   1.266       .  A
O688        C691   1.270       .  A
O688       Cd693   2.502       .  S
C689        C879   1.460       .  S
C689        O698   1.262       .  A
C689        O694   1.269       .  A
O690        C696   1.271       .  A
O690       Cd693   2.475       .  S
C691        C740   1.459       .  S
C691        O699   1.261       .  A
C692       C1223   1.482       .  S
C692        O697   1.271       .  A
C692        O695   1.266       .  A
Cd693       O700   2.444       .  S
Cd693       O699   2.396       .  S
Cd693       O698   2.402       .  S
Cd693       O694   2.504       .  S
Cd693       O697   2.462       .  S
Cd693       O695   2.449       .  S
C696       C1183   1.484       .  S
C696        O700   1.265       .  A
C701        N702   1.363       .  A
C701       C1160   1.483       .  S
N702        C703   1.363       .  A
C703       C1150   1.487       .  S
N704        C705   1.353       .  A
C705        N706   1.351       .  A
C705        C711   1.461       .  S
C707        N708   1.366       .  A
C707       C1143   1.485       .  S
N708        C709   1.367       .  A
C709       C1130   1.485       .  S
N710        C711   1.353       .  A
C711        N712   1.349       .  A
O713        C716   1.267       .  A
O713       Cd718   2.487       .  S
C714        O723   1.262       .  A
C714        O719   1.270       .  A
O715        C721   1.270   1_545  A
O715       Cd718   2.466       .  S
C716        O724   1.262       .  A
C717       C1123   1.482       .  S
C717        O722   1.270       .  A
C717        O720   1.267       .  A
Cd718       O725   2.440       .  S
Cd718       O724   2.397       .  S
Cd718       O723   2.361       .  S
Cd718       O719   2.490       .  S
Cd718       O722   2.451       .  S
Cd718       O720   2.449       .  S
C721       C1140   1.481       .  S
C721        O725   1.264   1_565  A
O726        C729   1.270   1_556  A
O726       Cd731   2.515       .  S
C727        O736   1.263       .  A
C727        O732   1.269       .  A
O728        C734   1.270       .  A
O728       Cd731   2.442       .  S
C729        O737   1.260       .  A
C730       C1110   1.485       .  S
C730        O735   1.271       .  A
C730        O733   1.265       .  A
Cd731       O738   2.438       .  S
Cd731       O737   2.343   1_556  S
Cd731       O736   2.415       .  S
Cd731       O732   2.494       .  S
Cd731       O735   2.475       .  S
Cd731       O733   2.447       .  S
C734       C1163   1.478       .  S
C734        O738   1.267       .  A
O739        C742   1.268       .  A
O739       Cd744   2.494       .  S
C740        O749   1.262       .  A
C740        O745   1.268       .  A
O741        C747   1.271       .  A
O741       Cd744   2.482       .  S
C742        O750   1.262       .  A
C743       C1133   1.487       .  S
C743        O748   1.271       .  A
C743        O746   1.265       .  A
Cd744       O751   2.450       .  S
Cd744       O750   2.409       .  S
Cd744       O749   2.399       .  S
Cd744       O745   2.502       .  S
Cd744       O748   2.477       .  S
Cd744       O746   2.467       .  S
C747       C1100   1.486       .  S
C747        O751   1.266       .  A
C752        N753   1.358       .  A
C752        N757   1.367       .  A
C752       C1113   1.482       .  S
N753        C754   1.352       .  A
C754        N755   1.351       .  A
C754        C760   1.462       .  S
N755        C756   1.354       .  A
C756        N757   1.367       .  A
C756       C1090   1.490       .  S
C758        N759   1.354       .  A
C758        N763   1.366       .  A
C758       C1120   1.490       .  S
N759        C760   1.349       .  A
C760        N761   1.352       .  A
N761        C762   1.360       .  A
C762        N763   1.368       .  A
C762       C1103   1.491       .  S
O764        C767   1.269       .  A
O764       Cd769   2.491   1_554  S
C765        O774   1.260       .  A
C765        O770   1.268       .  A
O766        C772   1.271       .  A
O766       Cd769   2.470       .  S
C767        O775   1.262       .  A
C768       C1153   1.480       .  S
C768        O773   1.272   1_565  A
C768        O771   1.266       .  A
Cd769       O776   2.434       .  S
Cd769       O775   2.375   1_556  S
Cd769       O774   2.392       .  S
Cd769       O770   2.497       .  S
Cd769       O773   2.459       .  S
Cd769       O771   2.427   1_545  S
C772       C1093   1.481       .  S
C772        O776   1.265       .  A
O777        C780   1.269       .  A
O777       Cd782   2.520       .  S
C778        C868   1.455       .  S
C778        O787   1.262       .  A
C778        O783   1.268       .  A
O779        C785   1.271       .  A
O779       Cd782   2.440       .  S
C780        O788   1.258       .  A
C781       C1080   1.480       .  S
C781        O786   1.272       .  A
C781        O784   1.266       .  A
Cd782       O789   2.441       .  S
Cd782       O788   2.334       .  S
Cd782       O787   2.406       .  S
Cd782       O783   2.470       .  S
Cd782       O786   2.466       .  S
Cd782       O784   2.429       .  S
C785       C1070   1.478       .  S
C785        O789   1.265       .  A
C790        N791   1.355       .  A
C790        N795   1.368       .  A
C790       C1060   1.487       .  S
N791        C792   1.349       .  A
C792        N793   1.349       .  A
C792        C798   1.455       .  S
N793        C794   1.355       .  A
C794        N795   1.369       .  A
C794       C1050   1.487       .  S
C796        N797   1.354       .  A
C796        N801   1.367       .  A
C796       C1083   1.481       .  S
N797        C798   1.349       .  A
C798        N799   1.350       .  A
N799        C800   1.355       .  A
C800        N801   1.367       .  A
C800       C1040   1.487       .  S
C802        N807   1.367   1_655  A
C802       C1030   1.482       .  S
N803        C804   1.348   1_655  A
C804        N805   1.351       .  A
C804        C812   1.457       .  S
C806        N807   1.368       .  A
C806       C1020   1.492       .  S
C808        N809   1.369       .  A
C808       C1073   1.486       .  S
N809        C810   1.368   1_455  A
C810       C1010   1.491       .  S
N811        C812   1.349   1_655  A
C812        N813   1.347       .  A
O814        C817   1.268       .  A
O814       Cd819   2.477       .  S
C815        O824   1.262       .  A
C815        O820   1.270       .  A
O816        C822   1.272       .  A
O816       Cd819   2.469       .  S
C817        C919   1.453       .  S
C817        O825   1.263       .  A
C818       C1053   1.482       .  S
C818        O823   1.272       .  A
C818        O821   1.265       .  A
Cd819       O826   2.440       .  S
Cd819       O825   2.396       .  S
Cd819       O824   2.371       .  S
Cd819       O820   2.488       .  S
Cd819       O823   2.471       .  S
Cd819       O821   2.438       .  S
C822       C1023   1.483       .  S
C822        O826   1.265       .  A
O827        C830   1.268       .  A
O827       Cd832   2.484       .  S
C828        C892   1.451       .  S
C828        O837   1.259       .  A
C828        O833   1.269       .  A
O829        C835   1.271       .  A
O829       Cd832   2.458       .  S
C830        O838   1.261       .  A
C831       C1063   1.484       .  S
C831        O836   1.271       .  A
C831        O834   1.266       .  A
Cd832       O839   2.442       .  S
Cd832       O838   2.392       .  S
Cd832       O837   2.356       .  S
Cd832       O833   2.514       .  S
Cd832       O836   2.470       .  S
Cd832       O834   2.456       .  S
C835       C1033   1.480       .  S
C835        O839   1.265       .  A
O840        C843   1.271       .  A
O840       Cd845   2.504       .  S
C841        O850   1.263       .  A
C841        O846   1.269       .  A
O842        C848   1.271       .  A
O842       Cd845   2.466       .  S
C843        C881   1.457       .  S
C843        O851   1.261       .  A
C844       C1043   1.482       .  S
C844        O849   1.272       .  A
C844        O847   1.266       .  A
Cd845       O852   2.453       .  S
Cd845       O851   2.375       .  S
Cd845       O850   2.407       .  S
Cd845       O846   2.484       .  S
Cd845       O849   2.461       .  S
Cd845       O847   2.447       .  S
C848       C1013   1.485       .  S
C848        O852   1.266       .  A
C853        N854   1.353       .  A
C853        N858   1.368       .  A
C853       C1000   1.481       .  S
N854        C855   1.347       .  A
C855        N856   1.352       .  A
C855        C863   1.458   1_455  S
N856        C857   1.358       .  A
C857        N858   1.369       .  A
C857        C990   1.490       .  S
C859        N860   1.365       .  A
C859        N864   1.355       .  A
C859        C970   1.483       .  S
N860        C861   1.365       .  A
C861        N862   1.357       .  A
C861        C980   1.490       .  S
N862        C863   1.354       .  A
C863        N864   1.350       .  A
O865        C868   1.267       .  A
O865       Cd870   2.471       .  S
C866        O875   1.262       .  A
C866        O871   1.270       .  A
O867        C873   1.273       .  A
O867       Cd870   2.481       .  S
C868        O876   1.263       .  A
C869        C963   1.476       .  S
C869        O874   1.272       .  A
C869        O872   1.266       .  A
Cd870       O877   2.416       .  S
Cd870       O876   2.409       .  S
Cd870       O875   2.364       .  S
Cd870       O871   2.491       .  S
Cd870       O874   2.459       .  S
Cd870       O872   2.423       .  S
C873       C1003   1.481       .  S
C873        O877   1.263       .  A
O878        C881   1.267       .  A
O878       Cd883   2.515       .  S
C879        O888   1.261       .  A
C879        O884   1.268       .  A
O880        C886   1.270       .  A
O880       Cd883   2.488       .  S
C881        O889   1.261       .  A
C882        C983   1.484       .  S
C882        O887   1.271       .  A
C882        O885   1.266       .  A
Cd883       O890   2.445       .  S
Cd883       O889   2.392       .  S
Cd883       O888   2.403       .  S
Cd883       O884   2.509       .  S
Cd883       O887   2.479       .  S
Cd883       O885   2.443       .  S
C886        C950   1.485       .  S
C886        O890   1.266       .  A
O891        C894   1.267       .  A
O891       Cd896   2.495       .  S
C892        O901   1.262       .  A
C892        O897   1.269       .  A
O893        C899   1.271       .  A
O893       Cd896   2.469       .  S
C894        O902   1.262       .  A
C895        C973   1.480       .  S
C895        O900   1.271       .  A
C895        O898   1.266       .  A
Cd896       O903   2.432       .  S
Cd896       O902   2.397       .  S
Cd896       O901   2.365       .  S
Cd896       O897   2.491       .  S
Cd896       O900   2.468   1_545  S
Cd896       O898   2.432   1_545  S
C899        C940   1.480       .  S
C899        O903   1.264       .  A
C904        N905   1.365       .  A
C904        N909   1.357       .  A
C904        C960   1.479       .  S
N905        C906   1.365       .  A
C906        N907   1.354       .  A
C906        C933   1.489       .  S
N907        C908   1.352       .  A
C908        N909   1.349       .  A
C908        C914   1.458   1_455  S
C910        N911   1.365       .  A
C910        N915   1.352       .  A
C910        C943   1.484       .  S
N911        C912   1.367       .  A
C912        N913   1.360       .  A
C912        C953   1.483       .  S
N913        C914   1.354       .  A
C914        N915   1.348       .  A
O916        C919   1.268       .  A
O916       Cd921   2.487       .  S
C917        O926   1.262       .  A
C917        O922   1.268       .  A
O918        C924   1.271       .  A
O918       Cd921   2.461       .  S
C919        O927   1.261       .  A
C920        C993   1.483       .  S
C920        O925   1.271   1_565  A
C920        O923   1.266       .  A
Cd921       O928   2.435       .  S
Cd921       O927   2.396       .  S
Cd921       O926   2.375       .  S
Cd921       O922   2.491       .  S
Cd921       O925   2.464       .  S
Cd921       O923   2.452   1_545  S
C924        C930   1.481       .  S
C924        O928   1.265       .  A
C929        C930   1.400       .  A
C929        C934   1.395       .  A
C929        H936   1.083       .  S
C930        C931   1.411       .  A
C931        C932   1.400       .  A
C931        F938   1.357       .  S
C932        C933   1.405       .  A
C932        H937   1.083       .  S
C933        C934   1.415       .  A
C934        F935   1.357       .  S
C939        C940   1.410       .  A
C939        C944   1.401       .  A
C939        H946   1.083       .  S
C940        C941   1.402       .  A
C941        C942   1.393       .  A
C941        F948   1.358       .  S
C942        C943   1.410       .  A
C942        H947   1.082       .  S
C943        C944   1.405       .  A
C944        F945   1.357       .  S
C949        C950   1.409       .  A
C949        C954   1.400       .  A
C949        H956   1.083       .  S
C950        C951   1.407       .  A
C951        C952   1.399       .  A
C951        F958   1.357       .  S
C952        C953   1.407       .  A
C952        H957   1.083       .  S
C953        C954   1.405       .  A
C954        F955   1.357       .  S
C959        C960   1.408       .  A
C959        C964   1.394       .  A
C959        H966   1.083       .  S
C960        C961   1.406       .  A
C961        C962   1.398       .  A
C961        F968   1.357       .  S
C962        C963   1.407       .  A
C962        H967   1.083       .  S
C963        C964   1.403       .  A
C964        F965   1.357       .  S
C969        C970   1.403       .  A
C969        C974   1.398       .  A
C969        H976   1.083       .  S
C970        C971   1.412       .  A
C971        C972   1.397       .  A
C971        F978   1.358       .  S
C972        C973   1.402       .  A
C972        H977   1.083       .  S
C973        C974   1.410       .  A
C974        F975   1.357       .  S
C979        C980   1.410       .  A
C979        C984   1.399       .  A
C979        H986   1.083       .  S
C980        C981   1.409       .  A
C981        C982   1.400       .  A
C981        F988   1.357       .  S
C982        C983   1.407       .  A
C982        H987   1.083       .  S
C983        C984   1.405       .  A
C984        F985   1.357       .  S
C989        C990   1.406       .  A
C989        C994   1.404       .  A
C989        H996   1.083       .  S
C990        C991   1.414       .  A
C991        C992   1.395       .  A
C991        F998   1.357       .  S
C992        C993   1.400       .  A
C992        H997   1.083       .  S
C993        C994   1.412       .  A
C994        F995   1.357       .  S
C999       C1000   1.401       .  A
C999       C1004   1.401       .  A
C999       H1006   1.083       .  S
C1000      C1001   1.413       .  A
C1001      C1002   1.394       .  A
C1001      F1008   1.358       .  S
C1002      C1003   1.400       .  A
C1002      H1007   1.083       .  S
C1003      C1004   1.413       .  A
C1004      F1005   1.357       .  S
C1009      C1010   1.411       .  A
C1009      C1014   1.393       .  A
C1010      C1011   1.408       .  A
C1011      C1012   1.405       .  A
C1011      F1018   1.357       .  S
C1012      C1013   1.410       .  A
C1012      H1017   1.083       .  S
C1013      C1014   1.403       .  A
C1019      C1020   1.406       .  A
C1019      C1024   1.402       .  A
C1020      C1021   1.416       .  A
C1021      C1022   1.396       .  A
C1021      F1028   1.357       .  S
C1022      C1023   1.400       .  A
C1022      H1027   1.083       .  S
C1023      C1024   1.411       .  A
C1024      F1025   1.357       .  S
C1029      C1030   1.409       .  A
C1029      C1034   1.394       .  A
C1029      H1036   1.083       .  S
C1030      C1031   1.405       .  A
C1031      C1032   1.402       .  A
C1032      C1033   1.409       .  A
C1032      H1037   1.083       .  S
C1033      C1034   1.403       .  A
C1034      F1035   1.358       .  S
C1039      C1040   1.405       .  A
C1039      C1044   1.402       .  A
C1039      H1046   1.083       .  S
C1040      C1041   1.414       .  A
C1041      C1042   1.394       .  A
C1041      F1048   1.358       .  S
C1042      C1043   1.400       .  A
C1042      H1047   1.083       .  S
C1043      C1044   1.412       .  A
C1044      F1045   1.357       .  S
C1049      C1050   1.404       .  A
C1049      C1054   1.401       .  A
C1049      H1056   1.083       .  S
C1050      C1051   1.415       .  A
C1051      C1052   1.396       .  A
C1051      F1058   1.358       .  S
C1052      C1053   1.400       .  A
C1052      H1057   1.083       .  S
C1053      C1054   1.412       .  A
C1054      F1055   1.357       .  S
C1059      C1060   1.404       .  A
C1059      C1064   1.402       .  A
C1059      H1066   1.083       .  S
C1060      C1061   1.414       .  A
C1061      C1062   1.396       .  A
C1061      F1068   1.358       .  S
C1062      C1063   1.401       .  A
C1062      H1067   1.083       .  S
C1063      C1064   1.411       .  A
C1064      F1065   1.357       .  S
C1069      C1070   1.399       .  A
C1069      C1074   1.391       .  A
C1069      H1076   1.083       .  S
C1070      C1071   1.411       .  A
C1072      H1077   1.083       .  S
C1073      C1074   1.414       .  A
C1074      F1075   1.357       .  S
C1079      C1080   1.401       .  A
C1079      C1084   1.395       .  A
C1079      H1086   1.083       .  S
C1080      C1081   1.412       .  A
C1081      C1082   1.399       .  A
C1081      F1088   1.357       .  S
C1082      C1083   1.401       .  A
C1082      H1087   1.083       .  S
C1083      C1084   1.413       .  A
C1084      F1085   1.358       .  S
C1089      C1090   1.404       .  A
C1089      C1094   1.402       .  A
C1089      H1096   1.083       .  S
C1090      C1091   1.416       .  A
C1091      C1092   1.396       .  A
C1091      F1098   1.357       .  S
C1092      C1093   1.400       .  A
C1092      H1097   1.083       .  S
C1093      C1094   1.411       .  A
C1094      F1095   1.357       .  S
C1099      C1100   1.409       .  A
C1099      C1104   1.402       .  A
C1099      H1106   1.083       .  S
C1100      C1101   1.405       .  A
C1101      C1102   1.397       .  A
C1101      F1108   1.357       .  S
C1102      C1103   1.410       .  A
C1102      H1107   1.083       .  S
C1103      C1104   1.409       .  A
C1104      F1105   1.357       .  S
C1109      C1110   1.403       .  A
C1109      C1114   1.396       .  A
C1109      H1116   1.083       .  S
C1110      C1111   1.413       .  A
C1111      C1112   1.403       .  A
C1111      F1118   1.357       .  S
C1112      C1113   1.403       .  A
C1112      H1117   1.083       .  S
C1113      C1114   1.409       .  A
C1114      F1115   1.358       .  S
C1119      C1120   1.410       .  A
C1119      C1124   1.393       .  A
C1119      H1126   1.083       .  S
C1120      C1121   1.408       .  A
C1121      C1122   1.403       .  A
C1121      F1128   1.356       .  S
C1122      C1123   1.408       .  A
C1122      H1127   1.083       .  S
C1123      C1124   1.404       .  A
C1124      F1125   1.358       .  S
C1129      H1136   1.083       .  S
C1130      C1131   1.410       .  A
C1131      C1132   1.396       .  A
C1131      F1138   1.358       .  S
C1132      C1133   1.403       .  A
C1132      H1137   1.083       .  S
C1133      C1134   1.413       .  A
C1139      C1140   1.410       .  A
C1139      C1144   1.402       .  A
C1139      H1146   1.083       .  S
C1140      C1141   1.404       .  A
C1141      C1142   1.393       .  A
C1142      C1143   1.410       .  A
C1143      C1144   1.406       .  A
C1144      F1145   1.357       .  S
C1149      C1150   1.405       .  A
C1149      C1154   1.399       .  A
C1149      H1156   1.083       .  S
C1150      C1151   1.413       .  A
C1151      C1152   1.396       .  A
C1151      F1158   1.357       .  S
C1152      C1153   1.401       .  A
C1152      H1157   1.083       .  S
C1153      C1154   1.410       .  A
C1154      F1155   1.358       .  S
C1159      C1160   1.407       .  A
C1159      C1164   1.394       .  A
C1159      H1166   1.083       .  S
C1160      C1161   1.409       .  A
C1161      C1162   1.399       .  A
C1161      F1168   1.357       .  S
C1162      C1163   1.406       .  A
C1162      H1167   1.083       .  S
C1163      C1164   1.405       .  A
C1164      F1165   1.357       .  S
C1169      C1170   1.411       .  A
C1169      C1174   1.393       .  A
C1169      H1176   1.083       .  S
C1170      C1171   1.407       .  A
C1171      C1172   1.405       .  A
C1171      F1178   1.357       .  S
C1172      C1173   1.410       .  A
C1172      H1177   1.083       .  S
C1173      C1174   1.403       .  A
C1174      F1175   1.358       .  S
C1179      C1180   1.413       .  A
C1179      C1184   1.395       .  A
C1179      H1186   1.083       .  S
C1180      C1181   1.407       .  A
C1181      C1182   1.404       .  A
C1181      F1188   1.357       .  S
C1182      C1183   1.410       .  A
C1182      H1187   1.083       .  S
C1183      C1184   1.403       .  A
C1184      F1185   1.358       .  S
C1189      C1190   1.410       .  A
C1189      C1194   1.398       .  A
C1189      H1196   1.083       .  S
C1190      C1191   1.407       .  A
C1191      C1192   1.402       .  A
C1191      F1198   1.357       .  S
C1192      C1193   1.409       .  A
C1192      H1197   1.083       .  S
C1193      C1194   1.406       .  A
C1194      F1195   1.357       .  S
C1199      C1200   1.402       .  A
C1199      C1204   1.400       .  A
C1199      H1206   1.083       .  S
C1200      C1201   1.414       .  A
C1201      C1202   1.396       .  A
C1201      F1208   1.358       .  S
C1202      C1203   1.401       .  A
C1202      H1207   1.083       .  S
C1203      C1204   1.411       .  A
C1204      F1205   1.357       .  S
C1209      C1210   1.411       .  A
C1209      C1214   1.396       .  A
C1209      H1216   1.083       .  S
C1210      C1211   1.405       .  A
C1211      C1212   1.401       .  A
C1211      F1218   1.357       .  S
C1212      C1213   1.410       .  A
C1212      H1217   1.083       .  S
C1213      C1214   1.403       .  A
C1214      F1215   1.357       .  S
C1219      C1220   1.406       .  A
C1219      C1224   1.402       .  A
C1219      H1226   1.083       .  S
C1220      C1221   1.415       .  A
C1221      C1222   1.395       .  A
C1221      F1228   1.357       .  S
C1222      C1223   1.400       .  A
C1222      H1227   1.083       .  S
C1223      C1224   1.410       .  A
C1224      F1225   1.357       .  S
C1229      C1230   1.403       .  A
C1229      C1234   1.402       .  A
C1229      H1236   1.083       .  S
C1230      C1231   1.414       .  A
C1231      C1232   1.395       .  A
C1231      F1238   1.358       .  S
C1232      C1233   1.400       .  A
C1232      H1237   1.083       .  S
C1233      C1234   1.412       .  A
C1234      F1235   1.357   1_565  S
C1239      C1240   1.400       .  A
C1239      C1244   1.393       .  A
C1239      H1246   1.083       .  S
C1240      C1241   1.411       .  A
C1241      C1242   1.402       .  A
C1241      F1248   1.357   1_565  S
C1242      C1243   1.404       .  A
C1242      H1247   1.083       .  S
C1243      C1244   1.412       .  A
C1244      F1245   1.358       .  S
